22
Coordinates from ORCA-job orca
  C   -0.90820900368496      0.96054840774509      0.56673344015358
  C   -1.33123208673234      1.60341349554435     -0.62265020364234
  C   -1.90689005032677      0.62521759316923     -1.45910398006265
  H   -1.23129230756269      2.65149571200684     -0.84927708300961
  C   -1.83256158660867     -0.61395626798078     -0.79173820393662
  C   -1.21653490144323     -0.41653503348427      0.46094822568029
  H   -1.02124718206233     -1.17151690471969      1.20393879462875
  H   -0.43932487102982      1.43917797378504      1.40875466751086
  H   -2.30550984742489      0.78713895967110     -2.44398984680657
  H   -2.14204848053243     -1.56280209969604     -1.20060588933698
  C   2.45565800032502      0.94260671209562     -1.99655476866286
  C   2.21201908173963      1.57965591686724     -0.76892367925779
  C   2.18663727521528      0.58920713362575      0.24215536149213
  H   2.04257037096788      2.63386930933197     -0.62462729974845
  C   2.41733705277304     -0.66744256115892     -0.36300931381705
  C   2.57620682257138     -0.44171150620972     -1.75122592082382
  H   2.71996314085683     -1.19684834940273     -2.50611385544329
  H   2.49024968021356      1.41426081863898     -2.96261108598194
  H   2.02629102565950      0.76199644037952      1.29226652424337
  H   2.48080808513725     -1.61527807585232      0.14496090892324
  Ti  0.38668591619522      0.12182720415097     -1.15761343462653
  H   0.12465386574881      0.05347512148773     -2.87222335747289
