31
Coordinates from ORCA-job orca
  Mo  0.24951466825829      0.71021772949515     -0.33871339660791
  Cl  1.84826585555063      2.13925535265713      0.51741665287317
  Cl  -1.68930445992095      1.77618883906211      0.43639969219242
  O   -1.29060912871316     -0.71078939305912     -1.10615426812822
  Cl  1.62422849919403     -1.11202439293879     -0.93770546557487
  C   -1.34913738578435     -1.18041885757327     -2.48892635246264
  C   -1.93467395533864     -2.57556958559556     -2.40472358090747
  H   -0.34599171439544     -1.14840389709830     -2.89704073633674
  H   -1.98011415893553     -0.47714641481860     -3.02674696997652
  C   -2.73870436901446     -2.54106965547154     -1.10922711373339
  H   -1.13633371995753     -3.31276097917174     -2.33240810097196
  H   -2.53956814735178     -2.81420239448301     -3.27601997107667
  C   -1.85706189928902     -1.69989092747162     -0.21704123700222
  H   -2.92000547175363     -3.52890805506571     -0.69225405472872
  H   -3.69930950725095     -2.05071586123254     -1.26237797564853
  H   -1.04341725745636     -2.27878830173183      0.22163187638706
  H   -2.38181246716223     -1.15886614474783      0.56496617788254
  O   0.31688141692226     -0.28328771758756      1.73146552344576
  Cl  0.24614208327101      1.73442471870783     -2.41971521807905
  C   1.58349913047751     -0.85550632779208      2.20846315444994
  C   1.62974329037094     -0.57219371301786      3.69514224376003
  H   2.39361953883859     -0.39688761964449      1.65591708475535
  H   1.55158014900161     -1.91733972945358      1.97719258494299
  C   0.15945609467765     -0.44791693765272      4.06723095436050
  H   2.14555987585628      0.36849667993203      3.88135652993907
  H   2.14830972792525     -1.35776311780611      4.23961556676797
  C   -0.40102202079305      0.27782848826481      2.87050688257627
  H   -0.00592429184972      0.10537694416280      4.98880584894849
  H   -0.29988907746127     -1.43111651733984      4.17128696251883
  H   -0.20461589843429      1.34740399731893      2.90994801083862
  H   -1.45873639948171      0.12143679115290      2.69500569459590
