43
Coordinates from ORCA-job orca
  N   0.74538038675045      2.04836194743707     -1.91374109815522
  C   0.94541106775250      1.67439415349707     -0.52465685622965
  H   0.82532424335881      0.60160460835290     -0.40189341584588
  H   0.23694657419903      2.16942608601127      0.15892532110913
  H   1.95594652405208      1.93019836833638     -0.21097103337909
  C   1.12520110512178      3.88690497436019     -3.56630419987745
  N   -0.16467946020701      4.18683383153194     -4.20508790678329
  C   -0.43962099871031      0.11380049189722     -2.87938968072233
  N   -1.68227809398895     -0.38015934295071     -3.46861037708995
  C   -0.22328392407224      4.31143262424967     -5.58717384518325
  C   0.11605224920054      3.26395064250472     -6.44811164454994
  F   0.52436338240998      2.08579809011058     -5.93934930859621
  C   0.01333147815485      3.38285849044335     -7.82450837173451
  F   0.34912315952878      2.35544509621916     -8.61104080725669
  C   -0.47404154603298      4.55307490631192     -8.38965305714274
  F   -0.59160904545787      4.66426561983564     -9.71613135834234
  C   -0.84395775409113      5.60321756556310     -7.56163973692383
  F   -1.30603839258982      6.73990816761022     -8.09099030596774
  C   -0.70327891407775      5.47678557880354     -6.19038980290962
  F   -1.04448418305078      6.51718716796369     -5.40271788793390
  H   -0.60488530199334      4.97651252495979     -3.75619367690345
  C   -2.87681270475099     -0.36564968113993     -2.77493440316368
  C   -3.01816672665874     -0.76376623805113     -1.44130780638797
  F   -1.94221593004829     -1.16309600980245     -0.73457815518578
  C   -4.24885245725981     -0.77214940754406     -0.80296584109194
  F   -4.32907978099719     -1.15576835078439      0.47657781194469
  C   -5.40033050664797     -0.41315205895087     -1.48642745021177
  F   -6.59164683145188     -0.44207092219885     -0.87629935033813
  C   -5.29849609308633     -0.02917008626545     -2.81609450956338
  F   -6.39395826737257      0.33433886176632     -3.49251128437822
  C   -4.06061070468415     -0.00178860719526     -3.42968213435448
  F   -3.97981117550516      0.40635579883233     -4.71522611406366
  H   -1.80536104333036     -0.04885420283929     -4.41214498893389
  C   0.96923531018153      3.47029596112592     -2.11206130779644
  H   1.78300097257333      4.76119130194024     -3.62073659273612
  H   1.61276188376150      3.08200375975349     -4.10569946853554
  H   0.19084434349697      4.09260464372833     -1.63192576828695
  H   1.90185287765347      3.71674460965634     -1.60487189257545
  C   -0.52899620671762      1.56662563347282     -2.42820476647913
  H   0.32686956885242      0.03110163116391     -3.64585108660708
  H   -0.14223254721074     -0.53848622581691     -2.06586269969391
  H   -0.81315357633253      2.17142753573203     -3.28375847624555
  H   -1.33323296072695      1.67992046036766     -1.68406466489653
