45
Coordinates from ORCA-job orca
  N   1.84201968415792      0.43761887511113     -1.98281245922255
  C   2.55451201797878      0.00798172951555     -0.77080284466228
  H   1.84113167231372     -0.33784069684964     -0.03256351534182
  H   3.07218656137887      0.86328545385248     -0.35066029095753
  H   3.26788502299553     -0.78922122091817     -1.00863214943022
  C   2.80237186862089      0.94608416644415     -2.98514454895122
  N   0.96997193618809      2.45102620202591     -3.58537044425780
  C   0.98747751382455     -0.64986792450022     -2.52181897282479
  N   -0.94135099597748      0.66860612646371     -1.92753525334904
  C   0.30547374437800      3.19676274729118     -4.56532488278989
  C   0.33096287782428      4.59627926524433     -4.56469322395503
  F   1.08659623521661      5.25355835915410     -3.68636805929119
  C   -0.39642598344721      5.33836561529374     -5.48295300768218
  F   -0.35768656122949      6.68115282420846     -5.45625177060038
  C   -1.13609433697897      4.69948557580603     -6.46535330477248
  F   -1.83299351827638      5.41649480736833     -7.36390177782553
  C   -1.14621953820288      3.31495800280428     -6.52065388713615
  F   -1.86304557052982      2.69028154698418     -7.47296260396259
  C   -0.43223397196633      2.58705833597452     -5.58471945201328
  F   -0.49194648715618      1.24320447558387     -5.65890587544307
  C   -2.31252926612792      0.74591528976390     -1.70808884951486
  C   -3.12571401854248      1.48652119233748     -2.58171893782576
  F   -2.60777611377590      2.00775372178427     -3.69896641247998
  C   -4.47882505556323      1.67278247869310     -2.36331102567030
  F   -5.21495070442656      2.39043285428446     -3.22957191326456
  C   -5.09588001482647      1.07699977412747     -1.27505346484204
  F   -6.41361287640585      1.24494041812535     -1.06101371215571
  C   -4.33992665396708      0.29700002814455     -0.41757403603050
  F   -4.93217356564786     -0.29410131365484      0.63742279246046
  C   -2.97914544445669      0.13988564465566     -0.63118060944872
  F   -2.31171971193879     -0.62400822981498      0.25134723281708
  W   0.36934713349377      2.25323253633053     -1.64054534020361
  Cl  -1.24225071894245      4.02703321208366     -1.63357146461336
  Cl  2.29372876421468      3.60384519810603     -0.89792665697152
  Cl  0.06615964888905      1.74954497356215      0.76820979252877
  C   2.08766914920755      1.66659796869587     -4.11057750788053
  H   3.41705841818079      0.12803902862186     -3.37931510917243
  H   3.44331417188770      1.64564631290942     -2.45799976886590
  H   2.81178946429001      2.32025730714884     -4.60865803262935
  H   1.74319524163042      0.95596842933721     -4.86868855727574
  C   -0.34571239072546     -0.66307125989136     -1.81064340244340
  H   1.50107672252639     -1.61182286020897     -2.42446933007280
  H   0.81843028033468     -0.45508143378378     -3.57605029747212
  H   -0.98891931773521     -1.41599633739396     -2.27488258133864
  H   -0.21209531269145     -0.95031920081834     -0.76473448316486
