52
Coordinates from ORCA-job orca
  Os  -4.62298984249610      2.09361544632577     -2.27436937698653
  C   -5.77590195182455      2.53790550917473     -3.90212851574540
  C   -5.31146599742039      2.46744460022712     -5.17671390973572
  H   -6.80407825873328      2.83800217683615     -3.72187194846532
  C   -3.88296218859100      2.01683419112893     -5.31637424578169
  O   -3.12992461283904      2.98995548575701     -6.04709413703409
  H   -2.23290495115215      2.65343905695718     -6.17142015311750
  C   -3.44099048048877      1.84334288991332     -3.91398963911369
  H   -3.82055718651441      1.04563346184268     -5.82675675626571
  C   -2.70259389473267      1.65732559856565     -2.89070825218575
  Cl  -6.63818315927052      2.63576801562476     -1.04588163388450
  Cl  -3.56741726610430      1.57563581768640     -0.05285085653329
  P   -4.11658250660089      4.43342018199544     -1.89423244290842
  P   -5.36452023173829     -0.21293931860112     -2.14532834559920
  C   -4.11563766955163      4.92538296459096     -0.14775823534245
  H   -3.36848300475772      4.34767098519706      0.38537469222988
  H   -5.08520016770137      4.69690359236115      0.28273765139273
  H   -3.90844824105099      5.98957898789316     -0.05795339003521
  C   -2.48045768569136      4.93188053839126     -2.53282823037043
  H   -2.42414893996290      4.72742196440188     -3.59866368034845
  H   -1.71093631639401      4.35667513442159     -2.02523512314934
  H   -2.30377157582502      5.99060572537008     -2.35817744991648
  C   -5.28757447461176      5.57704343154723     -2.69872660980844
  H   -6.29083865420330      5.34671378612297     -2.35198020119824
  H   -5.24297094321913      5.43949686211029     -3.77565252505053
  H   -5.05243799869605      6.61134733843600     -2.45868126090133
  C   -6.15968360738246     -0.67104145629110     -0.57961930802603
  H   -7.06679571886044     -0.09017847637170     -0.45197148577857
  H   -5.48400018738047     -0.43200828371400      0.23460770452386
  H   -6.39410309674027     -1.73328756953011     -0.57819795423741
  C   -6.56876129610214     -0.69964518638484     -3.42986435075622
  H   -6.14436978878379     -0.53159130944296     -4.41633364466859
  H   -7.45605581254112     -0.08046341022079     -3.32507495498193
  H   -6.85151577366956     -1.74549002350082     -3.33391658568593
  C   -3.97655688728341     -1.38352207668930     -2.32134953323270
  H   -3.25442670154242     -1.16926715808799     -1.53843485718530
  H   -3.49559135633949     -1.25367681285480     -3.28703053249259
  H   -4.31920556286882     -2.41118755189692     -2.22643281261675
  P   -6.23330688035328      2.93158724239377     -6.60506755562192
  C   -8.00313322962561      2.92384466989362     -6.24369606547076
  C   -5.92100508500063      1.78532436270748     -7.97068793307989
  H   -8.23345560639527      3.65485866898647     -5.47451837843608
  H   -8.30953661835809      1.94025985287888     -5.90085930082016
  H   -8.55635304071122      3.17951914648195     -7.14376656804594
  H   -4.86352684401893      1.80060170926374     -8.21942550033873
  H   -6.49033408869832      2.08237605095887     -8.84768354499284
  H   -6.20835495956365      0.77802006934587     -7.68300082246958
  C   -5.80654367285770      4.58662850479063     -7.20494803054550
  H   -6.03834877205999      5.31764231982117     -6.43533893557557
  H   -6.36565386444259      4.82461945404270     -8.10693125128809
  H   -4.74156107879249      4.62020980449926     -7.41089244801958
  H   -1.76755226945623      1.44006303464321     -2.41268077430208
