12
Coordinates from ORCA-job orca
  C   -1.37502336136922     -0.61292757702083     -2.07914097067513
  C   -0.26603637342410     -0.88639737844367     -2.75294619937099
  H   -2.22750721950875     -0.14135174603968     -2.54957835122527
  H   -1.47255851411895     -0.84825177594965     -1.02573430168800
  C   0.94933123735350     -1.54388254000781     -2.19106158302764
  H   -0.21864111653746     -0.63430295412362     -3.81001982596036
  C   1.28027434589070     -2.85936769432424     -2.88958751891491
  H   0.81487535286737     -1.71259946603917     -1.12146547741187
  H   1.80266441927857     -0.86630984495576     -2.29302222434887
  H   0.46885330481600     -3.57635146037512     -2.77323936431471
  H   2.18655582557247     -3.30457019989816     -2.48050633036552
  H   1.43792409917985     -2.71062736282229     -3.95788885269673
