34
Coordinates from ORCA-job orca
  C   -0.39404228572508     -0.79483535262807     -4.66697580152941
  C   0.95367417847955     -0.50392862104848     -4.97997200601455
  C   1.63577150387034     -1.73359931936996     -5.10322226982783
  H   1.38068938760623      0.47525318925150     -5.11733152989321
  C   0.72014537911086     -2.77745754094480     -4.86295593710922
  C   -0.53953322280487     -2.20327644083135     -4.57718793120767
  H   -1.45225701182749     -2.73907367451967     -4.37872798376063
  H   2.68233948428548     -1.84924105596884     -5.33217435421706
  H   0.94177380950034     -3.82964472596460     -4.88089838667748
  C   -0.94526889886317     -0.54104917323396     -1.27818893550905
  C   -0.11712524484774      0.53461582548191     -1.67846337078445
  C   1.14595018372612      0.37595346187841     -1.06651773228944
  H   -0.39702578904418      1.33306065611856     -2.34495562461752
  C   1.08662074537058     -0.80678618198617     -0.28424958012172
  C   -0.20351754479147     -1.36374126977640     -0.40922589396973
  H   -0.55059922963028     -2.27116947944240      0.05368747939792
  H   1.98158486678536      1.05049690610835     -1.14327623341179
  H   1.89284488837403     -1.21559133316405      0.30175402423279
  Zr  0.90292299537449     -1.50893729331813     -2.68053143564135
  H   -1.17821015572331     -0.07157860490027     -4.52056593216145
  H   -1.96463466561919     -0.70438625098139     -1.58724650164733
  C   1.69815120148251     -3.52891775411486     -1.95378711265207
  C   3.04602616801609     -2.88968529121142     -2.09365018396448
  H   1.56372837110720     -4.38637916265612     -2.60491869389005
  H   1.44538039642658     -3.79785695110965     -0.93420495279340
  C   4.02905802062454     -3.56494006962027     -3.03772310275836
  H   3.51710058751336     -2.69984308874325     -1.12889953562674
  H   2.98652483884246     -1.80042790117137     -2.50372082699314
  C   5.27460388359164     -2.74438367585747     -3.31981318505654
  H   3.51628269658989     -3.79678325017719     -3.97219851364981
  H   4.30200243020881     -4.52720650897955     -2.60013805847915
  H   5.02081105617923     -1.78739150426962     -3.77823080530042
  H   5.95239423184678     -3.26441789374208     -3.99563856498697
  H   5.82404274395864     -2.53009066910429     -2.40266052709085
