74
Coordinates from ORCA-job orca
  N   5.17755597701968      1.47642861222687     -4.12712050967217
  P   4.91056177144491      0.10515472341738     -0.53406396095053
  P   0.76534189407992      1.49188298810316     -5.53613951421271
  C   2.31495911836491      1.86375451048425     -4.62051933935989
  C   -0.55365732534015      1.83836903309639     -4.28104761176391
  C   6.04965990100477     -0.42345368591783     -1.90157932831136
  C   3.32161096534034      0.30654178993597     -1.42128747266333
  Si  1.89289863543547      1.31523832859788     -0.64395019029864
  H   2.96804271219552     -0.64724909962215     -1.81949373447006
  H   3.62386155962862      0.88788310995146     -2.29527649926192
  C   2.61246196605410      3.07117137621968     -0.52775949050235
  C   1.66992946932976      0.78415329231480      1.17673897923320
  Si  -0.52914415130463      0.73045684384462     -2.69451392838738
  H   -1.51963012600399      1.69350192194559     -4.77266123118844
  H   -0.50042618198317      2.88123169786318     -3.95929512589869
  C   -0.28207100337640     -1.04745161282440     -3.33701377710025
  C   -2.36058769013418      0.79117802815251     -2.14041921276031
  Si  3.95593890432605      1.03865921857728     -5.15607841540000
  H   2.11259962610927      1.47484311331938     -3.62191849788094
  H   2.44407774370137      2.93766271775664     -4.46878932074503
  C   4.30007729880591      1.51371228265844     -6.97294103962209
  C   3.56070813878209     -0.82361841302763     -5.24022641960871
  Si  6.44053369024032      0.92710642895054     -3.22495009064324
  H   5.63064586842305     -1.29963185623308     -2.40418842583651
  H   6.99839393964764     -0.73017945021119     -1.45137457849703
  C   0.57106237672526      2.93781207455587     -6.66377557766587
  C   -0.66392792546606      3.14907805430294     -7.29185953902664
  H   -1.49227958489513      2.49000018323691     -7.05921255574337
  C   -0.85064830137069      4.17884830709681     -8.19824061697661
  H   -1.82326593027299      4.32033651793653     -8.65777646653820
  C   0.20161265030675      5.03120694118132     -8.52021886098904
  H   0.06064124493070      5.83526425920314     -9.23363740974976
  C   1.43503848121552      4.83022836438438     -7.91658369561368
  H   2.26729636126781      5.48410840652059     -8.15250348493055
  C   1.61574602019961      3.80373019232408     -6.99888680171251
  H   2.58237678605785      3.67208751429694     -6.53794593059941
  C   4.69555575695193     -1.49707092862041      0.35773729030439
  C   5.80607303012718     -2.07484601617419      0.98560486291386
  H   6.76928721640683     -1.58292565572715      0.90650970339076
  C   5.70052210313533     -3.25311389312431      1.70546151982526
  H   6.58198580788443     -3.67979087210636      2.17250798694751
  C   4.46871119854465     -3.88830475664882      1.83292879431482
  H   4.37997680470992     -4.80708276893717      2.40167661457609
  C   3.35513363898989     -3.32295948184536      1.22771627920735
  H   2.38725289962433     -3.80356334069750      1.31605660627875
  C   3.46740687736185     -2.14786041132496      0.49600506415532
  H   2.58928982937164     -1.72978824146296      0.02778893572253
  H   3.30992754785130     -1.20671266230359     -4.25106623423287
  H   4.43335414124617     -1.37814369702357     -5.59398243294347
  H   2.72190886255579     -1.04113203686357     -5.90434269195878
  H   4.60563701747562      2.55792061754621     -7.05566727059726
  H   3.43834255894887      1.35605367636735     -7.62585119268406
  H   5.12711234999563      0.90793848433602     -7.35126120426728
  C   7.84972278908556      0.09572420522435     -4.22658255536868
  C   7.29124399459445      2.32058431467911     -2.24846304491280
  H   7.47771746845080     -0.79731431608650     -4.73332003081329
  H   8.70402356111005     -0.19887005192465     -3.60903614982096
  H   8.20866720330853      0.78060349527362     -4.99812016013518
  H   6.57729308706299      2.79253579429926     -1.57343219581226
  H   7.65813250620228      3.08880203859470     -2.93243652654631
  H   8.13366174579448      1.96342337835158     -1.64964316610706
  H   1.18946254694260     -0.19189962617676      1.25261131081161
  H   1.02135149449953      1.50274666850792      1.68382351101374
  H   2.61669619984759      0.73935522039140      1.72024962200097
  H   2.85637729889393      3.44086662500509     -1.52405850976062
  H   3.52583980394499      3.10137872761381      0.07055594464702
  H   1.88535471742343      3.75559374097807     -0.08484603420022
  H   0.72509598082499     -1.18245398280468     -3.73034285089114
  H   -0.98179493345649     -1.30943834956177     -4.13544585601155
  H   -0.41351436618146     -1.76059054971800     -2.51975188891845
  H   -2.64005513435061      1.81128709803463     -1.86908466624625
  H   -2.49904607012553      0.16998755873471     -1.25298837342731
  H   -3.05263209811692      0.44237519502551     -2.91275419622588
  N   0.49503968873705      1.22158808584361     -1.51402713983989
