50
Coordinates from ORCA-job orca
  C   -0.58955279364711     -0.78586550027896     -4.75688394548514
  C   0.75865860985917     -0.35057526079030     -4.87675567750791
  C   1.59989478555129     -1.46491495431526     -4.62041840814100
  C   1.20775431790902      1.00796162787744     -5.29247138825001
  C   0.77896711240195     -2.57967709470300     -4.32662361091744
  C   -0.58032873506609     -2.16307818888271     -4.40172081072942
  C   -1.77524746868043     -3.04218522749312     -4.25845746505848
  C   3.08767226725983     -1.45203777748324     -4.65666154662575
  C   1.24029598319195     -3.96003704673856     -4.01433283220782
  C   -1.32982105423810     -0.03248793420246     -1.22920745394514
  C   -0.41093843465968      1.00850541223762     -1.52782401406747
  C   0.88006677776368      0.59329994331154     -1.14264266773145
  C   -0.76429452922658      2.34975480103257     -2.06648838234157
  C   0.78416243510395     -0.75628364867153     -0.62455885206755
  C   -0.62105816588291     -1.10697766633667     -0.65625892592474
  C   2.13303982491055      1.39065070134379     -1.25722057836730
  C   1.75399589249224     -1.73020189432472     -1.05075008349588
  Ti  0.38449195421796     -0.98498724708485     -2.65451489459976
  C   -1.80061392981212      0.02827262120398     -5.05397357761218
  C   -2.80570085222119      0.03486529265924     -1.40429253216939
  C   -1.20456093314777     -2.39405319890778     -0.18490569658877
  H   2.28612010123802      2.01735643828589     -0.37412946281148
  H   2.12055327149340      2.05202038221163     -2.12210330078407
  H   3.00827606421522      0.75105539357204     -1.34644089669830
  H   -1.52617266102149     -2.32422466909453      0.85803203619328
  H   -0.48241081912486     -3.20583634417306     -0.23828862583122
  H   -2.07342082667395     -2.68860891470444     -0.77128263262251
  H   -3.09117260554486      0.71125386171753     -2.20591302416573
  H   -3.29200806851143      0.39381862033505     -0.49407351100790
  H   -3.23155221304219     -0.94155679692546     -1.62729644439506
  H   -1.65296108790893      2.31703664315911     -2.69224458268114
  H   0.04278884883521      2.77220165187491     -2.66145925067720
  H   -0.96695000917637      3.05555092382930     -1.25757406291451
  H   -1.60341686381098     -3.84548100064987     -3.54448803126178
  H   -2.04481509262842     -3.51022112818378     -5.20940493661209
  H   -2.64664754809700     -2.48648943743801     -3.91804660603581
  H   2.24824014958840     -3.96523075027344     -3.60791474526564
  H   1.24187137160514     -4.58945916936730     -4.90787387262122
  H   0.59494070254905     -4.44489950500358     -3.28360708857389
  H   3.48993082162226     -0.49088758854675     -4.34156126325510
  H   3.46184391722767     -1.64085523610842     -5.66602627553806
  H   3.51283192070871     -2.21065240228991     -4.00441613119971
  H   2.17526425752772      1.26147842041120     -4.86369274617725
  H   0.50413748560593      1.77841897337649     -4.98465051466591
  H   1.30758401759624      1.08094326934845     -6.37853348852137
  H   -1.63528811380328      1.08630870179940     -4.86422031495614
  H   -2.65591985301376     -0.28168310824881     -4.45800176722902
  H   -2.09104115332628     -0.06711242626972     -6.10320404683058
  H   1.62940653679191     -2.75800310681119     -0.73242503551491
  H   2.79440438498235     -1.43492945528302     -1.10519603351467
