55
Coordinates from ORCA-job orca
  C   -0.54189658636061     -0.79131721428032     -4.59348719017982
  C   0.75763859581688     -0.33756161835942     -4.92572307873711
  C   1.64409343440332     -1.44136990938887     -4.80989573114861
  C   1.10028788081323      1.00467858468279     -5.47336080835779
  C   0.90167393032905     -2.55125768753993     -4.33282532841706
  C   -0.44967610506878     -2.15193344426668     -4.20811608216052
  C   -1.58020070158789     -3.06897120861133     -3.89898513120007
  C   3.03433713854803     -1.47083209874102     -5.33263126201538
  C   1.43039576124502     -3.92013550212864     -4.08590417539583
  C   -1.03973840799264     -0.22893697362067     -1.36404650821331
  C   -0.13483894583740      0.86428554568610     -1.39725635818146
  C   1.02354756411075      0.48493709627477     -0.67087768900448
  C   -0.40954815428680      2.23182910598673     -1.91987734058137
  C   0.84965024641498     -0.84524289286118     -0.22631362565975
  C   -0.40938990778831     -1.30290425022636     -0.68248251906036
  C   2.17189374935576      1.38721779832606     -0.38948727335039
  C   1.75957519509994     -1.64355888210011      0.63707895406382
  Ti  0.87089395601145     -0.87389257997928     -2.63827804631834
  C   -1.78527540421577     -0.02095040722364     -4.86351438204820
  C   -2.49152054199694     -0.16182188345202     -1.68027352854362
  C   -1.03033160888633     -2.60436176633449     -0.30887510867517
  H   2.47209934887682      1.94917658246238     -1.27279106613651
  H   3.04552592008768      0.84469380660839     -0.04250544033108
  H   1.91012472062005      2.11630660447137      0.38066588157378
  H   2.70513018450230     -1.14059718656679      0.81424367997737
  H   1.98400119110215     -2.61680631838023      0.20198395919432
  H   1.29947599920289     -1.82329893335976      1.61115783182563
  H   -1.88103120279234     -2.84391920077674     -0.94015211942509
  H   -1.39139099335343     -2.58652906484110      0.72343911628818
  H   -0.32288406654125     -3.42917624286747     -0.38324390611028
  H   -2.72956129360859      0.63283991754486     -2.37846671525104
  H   -3.05222007717004      0.04256708081063     -0.76447485277474
  H   -2.88401802291339     -1.09107234699233     -2.08384550994577
  H   -1.15171023455862      2.22313875534941     -2.71405320058300
  H   0.48846992783211      2.69880031474950     -2.32011809225624
  H   -0.78996464204374      2.88987711974053     -1.13348632662395
  H   -1.31901974129715     -3.80074592251645     -3.13802781229859
  H   -1.87422195329477     -3.62892263098089     -4.79018663200338
  H   -2.46183833077723     -2.53723149677796     -3.55427081293696
  H   2.46676133965176     -3.89892335412959     -3.75764241371024
  H   1.38890747378711     -4.53292492572243     -4.99050199664017
  H   0.85781130731835     -4.43975669522248     -3.32012818820508
  H   3.58728099549001     -0.56290152810117     -5.10384371903482
  H   3.01682159863068     -1.57419285137474     -6.42019635990819
  H   3.60634337743307     -2.30647517879074     -4.94045512060622
  H   2.12100135151523      1.29086992774222     -5.22738318670945
  H   0.44164720018420      1.77829196041803     -5.08455330283296
  H   1.01545807836179      1.02669161373211     -6.56401423840551
  H   -1.72911912691483      1.00645224152515     -4.50978958376241
  H   -2.66252569106167     -0.47932955893006     -4.42110885728181
  H   -1.95912776491008      0.02979493586276     -5.94104933567919
  C   3.01204380492607     -1.04825384628778     -2.32664237950365
  H   3.42864295048751     -0.17129110348568     -2.83815294391053
  H   3.47169777508788     -1.92090523585504     -2.78642482389302
  H   3.36115750812669     -1.00423705092779     -1.29999931892378
