71
Coordinates from ORCA-job orca
  C   -1.01678748449446     -1.02990519181489     -4.70260341919015
  C   -0.12505364996933     -0.14921151744091     -5.34230067702827
  C   1.16405488539503     -0.74358011263972     -5.31877314036519
  C   -0.46595946872314      1.15137724934261     -5.98101110840260
  C   1.07069694817700     -1.97105336156158     -4.61910099723942
  C   -0.29092292556360     -2.17420663794653     -4.24437307943791
  Si  -1.07454228203158     -3.85053460142645     -3.97316737650849
  C   2.34388424882762     -0.28144602877407     -6.09438114338454
  C   2.22015560461972     -2.89795848483337     -4.40955189497462
  C   -0.95167127619944      0.55269317868063     -1.43493760272877
  C   0.30240898132252      1.09328768379369     -1.07351097734040
  C   1.16481236928115      0.02659899163432     -0.73330930239511
  C   0.59870201493232      2.54962796392478     -1.01452568404242
  C   0.44717917228579     -1.18045816319632     -0.87564152205279
  C   -0.89423244988084     -0.86986156192912     -1.27734308970851
  C   2.56983928138217      0.11673523460124     -0.25518596169842
  C   0.98588219441122     -2.51963575193534     -0.50649681237211
  Ti  0.54720349747659     -0.30140777280309     -3.04343243580774
  C   -2.49012876714880     -0.84096005299320     -4.63443911603657
  C   -2.13324565781104      1.39406008623194     -1.78270182163088
  Si  -2.33560273127497     -1.94832207417478     -0.76135872836024
  H   3.00738080783151      1.09372327950830     -0.43515765015101
  H   3.20867346144414     -0.61828286882887     -0.74245760433478
  H   2.62238360797198     -0.07499205613748      0.81872075735897
  H   -1.83733128596148      2.26587410485315     -2.36384374437642
  H   -2.63709942675667      1.76651651487743     -0.88643627205286
  H   -2.86718617943017      0.84750074547459     -2.36179741941853
  H   0.40258105446290      3.04578651754841     -1.96421794806748
  H   1.63373008404741      2.74717666739185     -0.75299527351722
  H   -0.02526329797862      3.03463410179707     -0.26155851299714
  H   3.16217957381232     -2.35447500147706     -4.38727423712423
  H   2.29769098749916     -3.63467917512674     -5.21377495782637
  H   2.13667448787449     -3.44439502324185     -3.47604408806305
  H   2.30280615764936      0.78141275315375     -6.31433594249155
  H   2.38216137087443     -0.80754886483762     -7.05098900804417
  H   3.28480068373280     -0.47093218028204     -5.58447968353121
  H   0.34247955924401      1.87254700194144     -5.88186149745482
  H   -1.35449491892286      1.59704110308861     -5.53985722371163
  H   -0.66119715916413      1.03011583371701     -7.04946072485631
  H   -2.76906272663495      0.20852198736240     -4.67609209509314
  H   -2.90490700536172     -1.25536196147139     -3.72458793693884
  H   -2.98557308728643     -1.33646237440086     -5.47273749777368
  H   2.00422514778761     -2.66017387093734     -0.86603088822515
  H   0.38195038903494     -3.31740166078113     -0.92237958099583
  H   1.01071229989854     -2.65690703529669      0.57759442892153
  C   0.09949861759745     -5.17506173838172     -3.32423409775699
  C   -1.60640821025021     -4.40182149094346     -5.69794295002725
  C   -2.61084273075910     -3.93835867863349     -2.88409415040128
  C   -4.03864093471383     -1.20558545731419     -1.08985309337065
  C   -2.19427591329381     -2.05201157179431      1.11796516680289
  C   -2.39891449686140     -3.72608211813917     -1.38649398843539
  H   -3.23748341183492     -4.15949359999231     -0.82954612157413
  H   -1.52652772216135     -4.28076158692802     -1.03817229084287
  H   -2.98540140740410     -4.95304922551991     -3.06111656012608
  H   -3.39735121580587     -3.28694188063023     -3.26556631984506
  H   -4.17188856262748     -0.25712444145987     -0.57442811235981
  H   -4.78067046618244     -1.89745950384007     -0.68825587549786
  H   -4.28290063319793     -1.04916678753968     -2.13722797932743
  H   -2.16142464642218     -1.05506038159906      1.55670624432290
  H   -1.29228842227356     -2.57499912276770      1.43099851184922
  H   -3.04695332223379     -2.57796320336333      1.54873526559335
  H   -0.76052306695304     -4.39717596171849     -6.38486214575718
  H   -2.36547663287819     -3.74003382931451     -6.11368401548694
  H   -2.01967917636498     -5.41092998495017     -5.68414611407563
  H   0.86710979992759     -5.42955152037420     -4.05120593524063
  H   -0.48096597587241     -6.08001666196377     -3.13803052525030
  H   0.59883762566592     -4.91578313084817     -2.39428024014195
  C   2.25610898127066      1.00597992361586     -3.35290523267117
  H   2.21032230848727      1.58258001517587     -4.27522803288263
  H   3.11489792986572      0.33187446066497     -3.45157673829931
  H   2.49323459440228      1.70009986587639     -2.55371417775675
