66
Coordinates from ORCA-job orca
  C   -1.23498856449916     -1.00562451552021     -4.78995785182048
  C   -0.27057413721914      0.02204268936769     -4.83315765415557
  C   1.01169164958270     -0.57002327610377     -4.70928712478570
  C   -0.57295423706957      1.45437278726638     -5.10470388926031
  C   0.84296335998203     -1.96899690136617     -4.58512169075161
  C   -0.55810350618390     -2.25851645302661     -4.64710453021501
  Si  -1.46538971747442     -3.88532391775337     -4.45383121293754
  C   2.31740727878463      0.12912411503758     -4.84991523392494
  C   1.96327206523285     -2.95096916455479     -4.49754143169795
  C   -0.76287590833363      0.57664373701068     -1.16945309115044
  C   0.54324359692471      0.93404103160022     -1.58896498926435
  C   1.43307135704694     -0.09911193937774     -1.20132035386483
  C   0.95650411537678      2.25757990402592     -2.12966223589023
  C   0.68520959481552     -1.07926059788002     -0.51626278576383
  C   -0.68627667112754     -0.67665687985711     -0.48186679813892
  C   2.91679348748582     -0.08272416782106     -1.32579780628248
  C   1.28631121153136     -2.30053109546554      0.09350478704637
  Ti  -0.20858884535663     -1.11970198382618     -2.69293512655370
  C   -2.69833175930554     -0.78169286010608     -4.95964027087216
  C   -1.97114397877804      1.44630896236898     -1.30287394099446
  Si  -2.05880347973584     -1.95789621430852     -0.42857977821723
  H   3.25728070629451      0.63238849761632     -2.06838487636818
  H   3.31610314010818     -1.05821702850256     -1.60021781414057
  H   3.38190578090280      0.19459278827109     -0.37681757861123
  H   -1.72334042054364      2.39632073508445     -1.76923936063147
  H   -2.39916479879616      1.66981419135533     -0.32527035324180
  H   -2.76073840618031      0.99243603189441     -1.89585774349152
  H   0.17776379395464      2.73192072258207     -2.71760347381523
  H   1.84458657182138      2.19220389322301     -2.75155968893907
  H   1.19560828603861      2.93729329543410     -1.30823875086835
  H   2.88719968651882     -2.47071132203969     -4.18424920060559
  H   2.15648709471507     -3.42017482374216     -5.46545601182447
  H   1.75682385902020     -3.75025321234094     -3.79313765865615
  H   2.24697649098177      1.18628362766823     -4.61318100796345
  H   2.67767906975934      0.05538120381211     -5.87844210804896
  H   3.08624624580117     -0.29971674116806     -4.21338058842334
  H   0.29579777612882      2.09011981355810     -4.96937742135127
  H   -1.36654595457139      1.83710061173084     -4.46456561217651
  H   -0.90857484181466      1.58330238796220     -6.13575581260798
  H   -3.00159576625234      0.18728793129739     -4.56815753553254
  H   -3.29315284263679     -1.53665064303454     -4.45595156671211
  H   -2.97761297198100     -0.80168704631994     -6.01629231179376
  H   2.11171707378987     -2.68549446736947     -0.50371387710149
  H   0.56621221208468     -3.10342484798112      0.21174257064222
  H   1.68498167647026     -2.07875084288073      1.08629648643358
  C   -0.31989491384594     -5.36228211031436     -4.22597457012506
  C   -2.53694094076072     -4.24448611647803     -5.96266768051160
  C   -2.39908359285507     -3.61952736477375     -2.84692202139968
  C   -3.78705187107287     -1.26017618562378     -0.69919358117256
  C   -2.15397443411489     -2.89370009361768      1.21123724726268
  C   -1.47217790364839     -2.79729698541838     -1.96209084835087
  H   -2.70492550421416     -4.56718172492289     -2.38680891027504
  H   -3.32769071374505     -3.07536685654783     -3.02716932101054
  H   -4.04701298796685     -0.49232531878123      0.02789103966325
  H   -4.51240970826615     -2.06729590149009     -0.59008601820926
  H   -3.91771655873743     -0.84162808492256     -1.69432598428247
  H   -2.45761868703692     -2.22398104622095      2.01805845428387
  H   -1.21108871443249     -3.34943469512603      1.50522699803103
  H   -2.89764238721706     -3.68950266326518      1.15006833104869
  H   -1.92608152020121     -4.37033826435308     -6.85700796890188
  H   -3.24964489755373     -3.44692024480848     -6.16298389704211
  H   -3.10452504031812     -5.16518089672465     -5.82260823367516
  H   0.39923426096273     -5.47785830910232     -5.03468527231582
  H   -0.92566369496517     -6.26892061748630     -4.19679239106396
  H   0.23048401816430     -5.31518083288025     -3.28777714277927
  H   -0.55108358146856     -3.35957470296289     -1.72320492384962
