80
Coordinates from ORCA-job orca
  Zr  -0.26787458741988      1.08907314264072      1.62645035961463
  C   -0.46557457141359      0.87308299272822     -0.98068594211122
  C   0.67304935806347      1.64594873769726     -0.68392307524787
  C   1.55771012810069      0.78127747939234      0.04940805168294
  Si  0.81069530570071      3.43007412819262     -1.19420850040670
  C   0.92732963269837     -0.47808553125494      0.20105615654316
  C   -0.36037488768930     -0.42068329014041     -0.43661481047831
  Si  -1.73817192374292     -1.66310948595556     -0.58268051515921
  H   -1.34433596487942      1.25330887446148     -1.47222850833331
  H   2.55748412958826      1.02302792000843      0.37176444788902
  H   1.37042358292541     -1.34742115296772      0.65924304874480
  C   0.57132962022817      0.91865238022360      3.79499082415494
  Cl  -2.51586668788824      2.16969914650380      1.25760850879289
  C   -2.88107667800848     -1.15515297256640     -1.98198328374246
  C   -1.08303793203244     -3.39051645727583     -0.93677328957747
  C   -0.42372198446544      3.77290370724446     -2.56541104143172
  C   2.53717313782795      3.84745744688112     -1.81341187998347
  H   -0.62898069342192     -3.41722732484943     -1.92722158296895
  H   -1.88834957925361     -4.12510368114673     -0.92500307405037
  H   -0.32735785389227     -3.72111141695725     -0.22745317480137
  H   -3.33180330230194     -0.18253284110449     -1.79072438528989
  H   -3.69269737833271     -1.87412717585172     -2.09508658952941
  H   -2.35261206504378     -1.10042242662886     -2.93287197689679
  H   2.73578521379067      3.31529253700736     -2.74355778617125
  H   3.32454880775356      3.57637830421240     -1.11326091881465
  H   2.63285203948991      4.91385959449979     -2.01827705555821
  H   -0.24366357856846      3.14359153630477     -3.43602804654663
  H   -0.36098018504861      4.81205100397011     -2.88881687823386
  H   -1.44432587435523      3.59741902326101     -2.22861998489958
  C   -2.74150664234073     -1.60619957073146      1.02501736188609
  C   0.32338186924052      4.49670134483511      0.29537501040505
  P   -1.65113928846603     -1.16822350962397      2.42885836016750
  H   -3.33837037773118     -2.50198501604083      1.19177028358173
  H   -3.42823101441748     -0.76544554211967      0.91787134134288
  C   -0.63601658531938     -2.72632866537408      2.66282631572453
  C   -2.73696212349967     -1.07601016994154      3.96037793315618
  P   0.76920199045945      3.64154532485360      1.85197686578398
  H   -0.76666415599546      4.53747546066372      0.28889683392060
  H   0.69181869053307      5.51990098696341      0.23176721253669
  C   0.18664034725059      4.73751203185220      3.26339745885669
  C   2.63811309393079      3.78536677984283      1.88239464969412
  C   -3.05176105259320      0.37012823546729      4.31645539960585
  H   -2.11166094211668     -1.49592698984187      4.75198985585491
  C   -4.01919067452991     -1.88983239184075      3.86506029284131
  H   -4.69053358037701     -1.47057834357592      3.11810624566574
  H   -4.54278499919612     -1.86340498950339      4.82185678941266
  H   -3.84838619955814     -2.93188804725084      3.61238426580342
  H   -2.14971464207078      0.95678551682196      4.45983767679797
  H   -3.63067998222230      0.40833102222451      5.24052365987511
  H   -3.63006841361115      0.85455282134412      3.53396955064274
  H   -0.13770065248694     -2.81997245528503      1.69763431867342
  C   -1.42886819877262     -4.00080820012119      2.90521838260137
  C   0.44555724372948     -2.54803035042186      3.71538632728434
  H   -2.21413232856579     -4.15529922973711      2.16959941242131
  H   -1.88274648351104     -4.00372078143436      3.89459813141974
  H   -0.76373267095870     -4.86438733622322      2.85598004348700
  H   1.09293758710978     -1.70794415292585      3.48925763671195
  H   1.05975416399037     -3.44738137933116      3.77423269162770
  H   0.02457836997255     -2.38088278274678      4.70606658660809
  H   2.92453158933495      3.26818222771041      0.96638356479796
  C   3.24381744126012      3.01638721553594      3.04498486271276
  C   3.19063479053303      5.19988595821838      1.81263219391289
  H   2.77504364040559      5.77333074799966      0.98764660038872
  H   4.27231813657315      5.16771963520693      1.67297414516499
  H   3.00321704078423      5.74426837622353      2.73618983436272
  H   2.94703424881826      1.97340378096801      3.03333383038837
  H   2.94482576410908      3.43191214984751      4.00642874291041
  H   4.33235466174456      3.06374964899133      2.99714870365812
  C   -1.11288121412493      4.21201843544601      3.85686203263974
  C   0.04305052702643      6.20634048882265      2.89270970317832
  H   0.97241727112528      4.63909575236799      4.01624086850722
  H   -0.76522689001017      6.34870182773876      2.17788803710172
  H   0.94534756565992      6.63165248627072      2.46425625203091
  H   -0.20584678722516      6.78663758199265      3.78240071551731
  H   -1.92103365024791      4.24263297153775      3.13056246723716
  H   -1.40355012757345      4.82063714387570      4.71449540315731
  H   -1.01821755096144      3.18336879498329      4.18999314198809
  H   1.53690454687896      0.41171683366307      3.66899065909198
  H   0.01238184781989      0.30084302775442      4.49966826764088
  H   0.79974957169021      1.84839109577006      4.31810398205568
