43
Coordinates from ORCA-job orca
  C   -0.39981947049311     -0.46665730344890      1.48657443395786
  C   -1.37821093139145     -1.60920201732950      1.66839629660461
  H   0.54645187554278     -0.68664191112418      1.99181330865953
  H   -0.79423017659113      0.44387296660884      1.94512339012701
  H   -1.38237702742140     -1.86968415901269      2.73301844719457
  H   -1.01851958766485     -2.50790932147952      1.16310340773606
  C   -3.22437921185219     -1.74001763168132     -0.17515575031232
  C   -2.82292581647489     -1.33925349794852      1.24045940492315
  H   -4.31444590545924     -1.71256684045961     -0.22669687628750
  H   -2.95297929327467     -2.78779357471789     -0.33407720449716
  H   -3.47765384199106     -1.88651073842527      1.91934866209630
  H   -3.05985704890901     -0.28509871084296      1.40796082535507
  C   -2.68546295932451     -0.91444303572240     -1.33444063572553
  C   -1.19800055049136     -1.05553576652845     -1.58387750735456
  H   -3.22897558896498     -1.21822417595198     -2.23580756274986
  H   -2.95763159311777      0.13625090013392     -1.19100804181089
  H   -0.91866758241933     -0.60104627899025     -2.55092899057075
  H   -0.92697957580999     -2.11272722714154     -1.65499916614359
  Cr  0.09092188695193     -0.03757101985739     -0.42716659112923
  S   1.86702887508029     -1.68603231020608     -0.76458659750339
  S   -0.96135281437051      2.17809460222954     -0.65567772348642
  C   1.76417304066642     -3.00181695895880      0.48923952685717
  C   3.31020230990219     -0.70603366513099     -0.17206212153778
  C   2.91635717426737      0.45210715194037      0.71560340096765
  N   1.88750572109672      1.26078207741740      0.04395076863541
  C   1.42316617483030      2.43501217651685      0.79809659686059
  C   0.43719298799247      3.21213463824617     -0.04330411578383
  H   3.80751585187219     -0.35409456850457     -1.07431767344582
  H   3.99965600330574     -1.37677005896924      0.33238807000676
  H   3.80612674664066      1.04517464044785      0.94856560156917
  H   2.50501752119677      0.10022166236414      1.65771358022409
  H   2.25382493695178      3.09174846051095      1.07534860601570
  H   0.96242691055879      2.08110128030546      1.71709004738472
  H   0.91727016449136      3.61499212714525     -0.93354842706188
  H   0.02377792218811      4.05313738446814      0.50532139174510
  C   -2.22369858451335      2.51543097951662      0.61312475167800
  H   2.28561965570140      1.59586590898271     -0.83066254467816
  H   -1.86069464184208      2.28156274753254      1.60725858108676
  H   -3.07720660744837      1.88920316377921      0.38292159926609
  H   -2.51487521287026      3.55825026570785      0.54405716730643
  H   0.89736337621659     -3.60179559356370      0.23620679350514
  H   1.64523841588547     -2.59471292699948      1.48627419583904
  H   2.65492447135596     -3.61786184085878      0.42467167447658
