38
Coordinates from ORCA-job orca
  N   -0.29769563927821      0.17795164533663     -3.18949427006846
  C   -0.45612152592979     -1.09369726041375     -3.59009138903926
  N   0.32357166389773     -0.30187440429070     -0.47238010812438
  S   2.13442303053003     -1.69417846426465     -2.60447903599811
  S   0.18063990640770      2.68217230496086     -1.38020860723454
  C   -1.71733202524328     -1.60763202130878     -3.85202123124237
  C   -2.82634559467117     -0.79494795132616     -3.69349609826295
  H   -1.82546879011883     -2.63407626443947     -4.17160917976379
  C   -2.64781813932318      0.51433081640857     -3.28034681129290
  H   -3.81843708700239     -1.17903217907575     -3.88265331949336
  C   -1.36520990944227      0.97810140116018     -3.03234004342599
  H   -3.49463784104621      1.17184960100672     -3.14647247888892
  C   -1.13539794397045      2.39985683776731     -2.61949587387282
  H   -2.05844563514310      2.85885335755850     -2.27735704089000
  H   -0.78843565354038      2.97916066592100     -3.47588570435127
  C   -0.48529483818930      1.91074742564595      0.14305527081208
  C   -0.61309856442333      0.41709231522719      0.15805497790660
  H   -1.42425588874342      2.39198480792213      0.40188329807201
  H   0.25153515532097      2.20714429982407      0.89059775898555
  C   0.32687981210477     -1.63925573804596     -0.40502494271332
  C   -0.66025335754574     -2.31788903436197      0.29465892086223
  C   -1.65142692593060     -1.58998580901252      0.93259653383510
  H   -0.65105298047618     -3.39723421259478      0.34145223818947
  C   -1.62623917275530     -0.20646605376081      0.87252421780070
  H   -2.43472327713754     -2.09745117145255      1.47730142873581
  H   -2.38031886535134      0.38205455042938      1.37481449410809
  C   0.76455777170076     -1.94062596613716     -3.79098025228766
  H   1.22507610875445     -1.69720689709718     -4.74913584270723
  H   0.50213382370863     -2.99419812737713     -3.82391385158555
  C   1.47337785559302     -2.37033076799604     -1.03424754804742
  H   2.33914608837010     -2.30158686637466     -0.37449586640682
  H   1.24648290181017     -3.42398256088587     -1.16999667448227
  Pd  1.49695625006198      0.66262718341054     -2.04991994259480
  C   2.52924073875167      1.55442529739544     -3.57889333962216
  H   3.44075784108864      0.98750403241546     -3.72152763436218
  H   2.75430781666252      2.56563385130651     -3.26363993675074
  H   1.88672823507471      1.52828642842060     -4.45399693608968
  Cl  3.33835465542248      1.07789492809731     -0.63692517969881
