29
Coordinates from ORCA-job orca
  N   -3.05764845507178      1.61239348912542      0.34632939384539
  C   -3.25154400140773      0.83797781649056      1.41684782143679
  C   -4.29619341138388     -0.08462076330583      1.49682407592491
  C   -5.16151987616573     -0.20395120914708      0.42440986007302
  H   -4.44328955537040     -0.67091744285291      2.39302270341147
  C   -4.95654866497245      0.58610154932069     -0.69231255997402
  H   -5.99596397089059     -0.89131567764933      0.46561804396418
  C   -3.88821902687811      1.48464595552262     -0.69151006385226
  H   -5.62855073483042      0.53287527156171     -1.53738070326586
  C   -2.29935403378664      0.99036110505497      2.54383471134799
  N   -1.92071862293688      2.23406647834297      2.86342406829108
  C   -1.82809279248725     -0.13135091170797      3.22732767900195
  C   -3.63364892562492      2.34537377372793     -1.87226552413997
  N   -3.28817640910367      3.61791178773048     -1.64069611495973
  C   -3.75262950106870      1.82813852082980     -3.16284089158774
  C   -0.93885116937831      0.04193025146333      4.27397787681482
  H   -2.13282957162306     -1.12365079109990      2.92460936354045
  C   -0.54787042300110      1.32743429353439      4.61042243183469
  H   -0.55037203597208     -0.81369746625682      4.81041351869904
  C   -1.06876421100200      2.38298278439061      3.87390374778049
  H   0.14539319436241      1.51178459352413      5.41981935790801
  H   -0.78859279520444      3.40423676890990      4.10865602803357
  C   -3.50781940284045      2.65550806461487     -4.24535471807951
  H   -4.00549169229081      0.78770852243745     -3.31382907022791
  C   -3.15469317564673      3.97404792476549     -4.01013004771805
  H   -3.58180064179514      2.27331676725651     -5.25492937285979
  C   -3.06016196893891      4.40016917149143     -2.69197960826982
  H   -2.95339872113488      4.65721627358481     -4.82405166174825
  H   -2.78829940355523      5.42586309834068     -2.46702034522520
