17
Coordinates from ORCA-job orca
  N   -2.97282245398903      1.15372935194568     -0.10553031080120
  C   -2.66521053358621      0.16617002003719      0.73107227500904
  C   -3.59308715252869     -0.78246174824581      1.16269506283861
  C   -4.89249545461487     -0.69052056382573      0.69641108185402
  H   -3.29763082553210     -1.56552370364283      1.84298150175109
  C   -5.22295841976347      0.33275635542663     -0.17421641948937
  H   -5.63894772082436     -1.40803225064201      1.00791471503158
  C   -4.22520142370884      1.23423383743023     -0.54699130755360
  H   -6.22513446587349      0.43708571006711     -0.55893391973592
  C   -1.23724391753531      0.13172151497160      1.18789504796974
  O   -0.37284273891634      0.89697004664737      0.84577134876398
  O   -1.01600498436447     -0.89148693046978      2.05867462003989
  H   -0.07707609491995     -0.83418561433756      2.29387632660424
  C   -4.50492074821860      2.37105562591888     -1.48413659072620
  O   -3.70337418035955      3.19178109759067     -1.84994834407956
  O   -5.80480511757198      2.37588606756061     -1.88961420428756
  H   -5.88860376769267      3.13696118356776     -2.48454088318878
