43
Coordinates from ORCA-job orca
  C   -0.80784440235902     -0.25069628497872      1.70503341120105
  C   -1.49131191644043     -1.50720556564860      2.21175704934365
  H   0.13175795865136     -0.10863500738455      2.25752938364876
  H   -1.43209840434807      0.60436728791392      1.97046911630373
  H   -1.71430084448704     -1.40891403728978      3.27949206346093
  H   -0.82133323749688     -2.36281303251833      2.14181924267097
  C   -2.58604752866394     -2.10561858500314      0.00048473404376
  C   -2.77777498324392     -1.86124558099023      1.48901748326020
  H   -3.50699559543149     -2.54051934500047     -0.40172480351332
  H   -1.80762204034745     -2.85146360499825     -0.17607790354353
  H   -3.21552874118060     -2.75090869606798      1.94295136434051
  H   -3.51329468650939     -1.06305681629020      1.62512671598254
  C   -2.32090057184974     -0.87080089807711     -0.79358338740785
  C   -1.65393096215622     -0.80822611365835     -1.98449455348905
  H   -2.96079358807448     -0.03028749702065     -0.54109444164757
  H   0.25463783879036      0.12827690401065     -1.92844141401274
  H   -1.80747682412771      0.01221010878132     -2.66592911273966
  H   -1.16988704230348     -1.67997253738236     -2.40139075174731
  Cr  -0.20219152158824      0.03852651633045     -0.29531753738387
  S   1.27805371276762     -1.90346292779051     -0.43452039852235
  S   -1.10823385366730      2.30110136387981     -0.55287376074337
  C   1.45928391595205     -2.92784753521374      1.06322411825145
  C   2.83368485475142     -0.93591096840765     -0.29833116940131
  C   2.66943764412284      0.26780173040853      0.59878103019006
  N   1.60280517864894      1.11406381730132      0.04341404010644
  C   1.35266182070572      2.38933168868626      0.73428577385422
  C   0.42680115441969      3.21922189164981     -0.12434248998689
  H   3.08786277186476     -0.63771586315787     -1.31313082171068
  H   3.61720826109991     -1.59810249959417      0.05807550526686
  H   3.61148343701092      0.82003479801302      0.66021021800752
  H   2.38845048519403     -0.02178922533254      1.60814175597461
  H   2.28678345469731      2.93298950601066      0.90183833011656
  H   0.91108270213284      2.17285575217740      1.70381168153058
  H   0.89603317036609      3.47591391544587     -1.07199180264249
  H   0.14629506144223      4.14745532289932      0.36389091073518
  C   -2.17926177647830      2.80919290537143      0.83138428379067
  H   1.85878771009209      1.32677642059132     -0.91609305537848
  H   -1.67344371004694      2.70822380066478      1.78465998588447
  H   -3.05214814300267      2.16582071971179      0.81920827184346
  H   -2.48850797454231      3.83668932284244      0.66876792220282
  H   2.36858815180614     -3.51294350512851      0.96395641891046
  H   1.48511171112330     -2.32969616087466      1.96652590908663
  H   0.61306035270599     -3.60323148488174      1.09827468386238
