22
Coordinates from ORCA-job orca
  C   -5.29006900448657      2.22095591872479      0.48202330387565
  C   -4.08864849248217      2.91469041428472      0.16140334675209
  C   -3.04351848815387      2.38158623943875      0.92298025807291
  H   -4.00371226512434      3.72838939488535     -0.54992906246419
  C   -3.57192107146420      1.34616570287977      1.72705187150616
  C   -4.94098411535714      1.24521634986517      1.45860834012442
  H   -5.62795346866049      0.54673261900861      1.92294120029021
  Si  -6.91648427202722      2.44933550567848     -0.28884536975991
  H   -2.01123604291057      2.71351822610083      0.91078220818436
  H   -3.01484191769865      0.74611341826798      2.43807255141888
  C   -7.17804920101604      4.23728261772736     -0.87418157488589
  C   -8.33178883965297      2.02801209175798      0.90617592168166
  C   -7.22458249706852      1.36716771269528     -1.82781319129335
  H   -7.13254107280134      4.92957796054013     -0.03320298680925
  H   -8.14045036196065      4.36938487275540     -1.37446881384652
  H   -6.39599244693915      4.53023156286128     -1.57603386227656
  H   -8.30858894825871      2.68244416734208      1.77782628010820
  H   -8.23447569458894      1.00398335849641      1.26957613544950
  H   -9.31270092420043      2.12152860859885      0.43378799253027
  H   -6.47636431925883      1.57552094581399     -2.59401668130542
  H   -8.21384736945397      1.52542626554148     -2.26725449567384
  H   -7.13378918643524      0.31062604673530     -1.57109337167941
