67
Coordinates from ORCA-job orca
   Y  -1.56170915332602      0.70795695268141      0.20384328691509
  C   -4.14874058979133      1.73781443065595      0.59422705396036
  C   -3.24786639569004      2.84166134920943      0.58299056419507
  C   -2.44847193787749      2.78283262602923      1.73953891989427
  H   -3.23862617556568      3.63765997650391     -0.14649506936097
  C   -2.80371472683886      1.63071776254538      2.45931820704304
  C   -3.83439210534616      0.97999436463333      1.75649803553169
  H   -4.34075001378978      0.08282473982131      2.07463705590835
  Si  -5.75655671870746      1.71016689247953     -0.30237973816541
  H   -1.67724273027336      3.48460355755985      2.00285836971643
  H   -2.33544564108385      1.27814776188354      3.36474552862076
  C   0.34186946836102      0.16641832551627      2.12355198412505
  C   0.43737708618483      1.54096047065638      1.86236986571196
  C   0.88974458083438      1.73623701075547      0.52329129488191
  H   0.17643004788638      2.32370847981637      2.55382647870910
  C   1.12824736876864      0.42810555390931      0.00646862763911
  C   0.78025688092501     -0.52246492119947      0.97078474911722
  H   0.81237389208358     -1.59246890803937      0.84946561176986
  H   0.00031090680101     -0.28844671076066      3.04075596787261
  Si  1.34418550458458      3.31604963942110     -0.30268808165441
  H   1.47123153862030      0.21048260976650     -0.99148518430818
  C   -2.45428703937314      0.47533803388810     -2.34569856036746
  C   -1.11126431501049      0.04950546646731     -2.42978491946662
  C   -0.99108032375731     -1.14768624183281     -1.71546828118597
  H   -0.31572814774985      0.57066120730356     -2.93733538549401
  C   -2.25067787156288     -1.48333586780372     -1.13834876280930
  C   -3.15359707190306     -0.47010312798554     -1.58027038946065
  H   -4.19680050648599     -0.42822378819192     -1.33070940995142
  H   -2.85868331257581      1.37256727793908     -2.78470392989876
  H   -0.07766985388647     -1.70157676838557     -1.57489199712745
  Si  -2.67796142439917     -3.04516033380523     -0.26447279032351
  C   -5.63275116785944      2.13523083858993     -2.13692658012930
  C   -6.87420377874856      3.03080687189529      0.47106072839250
  C   -6.67204571081378      0.06910996393027     -0.10690515405595
  C   0.31049216999079      4.77326699880468      0.29977529992418
  C   1.16896073946979      3.19032552706313     -2.17599023172094
  C   3.15671443614100      3.74686145590190      0.06081685557384
  C   -1.15312770078154     -3.84310321593530      0.50732034548373
  C   -3.40151177352082     -4.29299076677450     -1.49798496153333
  C   -3.96557846656134     -2.80438825431111      1.08959925471633
  H   -5.01313575782465      3.01868538560361     -2.29229326032146
  H   -6.62096529386999      2.35026454407252     -2.54717440247533
  H   -5.19884097335467      1.32467473113528     -2.71766525577492
  H   -6.42303390331915      4.01897856373003      0.37773135754133
  H   -7.01447342076000      2.84006716149545      1.53523533603742
  H   -7.85884324134001      3.06396898086728     -0.00026445663577
  H   -0.73515774346780      4.64359370345938      0.02855396157934
  H   0.66378807812066      5.70575668182652     -0.14457129703160
  H   0.36271650942394      4.88665440946524      1.38289898620402
  H   3.31893709854925      3.85854371478256      1.13357224076430
  H   3.46512278752743      4.67594527291803     -0.42327585541002
  H   3.81899118751675      2.95239475968545     -0.28498656847703
  H   -3.54895497243334     -2.21349415401205      1.90375332607769
  H   -4.29420580118678     -3.76457780260622      1.49329344499401
  H   -4.84619314493906     -2.27966260337636      0.72273686258286
  H   -0.34578329122618     -3.95799199214081     -0.21621828245655
  H   -1.38867077803296     -4.83415618656864      0.89926381906056
  H   -0.77959575746714     -3.23521283185595      1.32947309165364
  H   -2.68854084411616     -4.50314924851906     -2.29605933088544
  H   -4.30168125629326     -3.89318183484146     -1.96635831249866
  H   -3.66411453162716     -5.24036076176654     -1.02254486803473
  H   0.12784941637288      3.01724067493036     -2.44494323525819
  H   1.75646781368168      2.36489833905349     -2.57888558843183
  H   1.50469048461081      4.10577513897391     -2.66719715764865
  H   -6.20388335328005     -0.74754075905660     -0.65277511125276
  H   -7.69498055181122      0.16391007946284     -0.47498261984438
  H   -6.72698872641386     -0.22468120761276      0.94108851748209
