55
Coordinates from ORCA-job orca
  Sc  -0.86677578368858     -1.23722848643229      1.41562116271636
  N   -0.24461639951879      0.68480545463340      1.59621729665142
  Si  1.37575165806318      0.60015955545757      1.05658832398912
  Si  -1.15149331774542      1.96031755160688      2.32445176009448
  N   -2.70067769888405     -1.96772796608794      0.95649742276549
  Si  -3.76606694519222     -1.40858110868693     -0.28292591781917
  Si  -2.80136077252671     -3.40329314981317      1.88740970194171
  C   -2.77348742981580      1.24508807032127      2.96258312307152
  C   -1.49126029938442      3.34905492492089      1.10024238040063
  C   -0.25631995803254      2.70330630067096      3.80615782537469
  C   1.66221747634532      1.35110315353918     -0.63854979032059
  C   1.73197696308900     -1.28919277089712      0.91202761030115
  C   2.65752747582020      1.27029477277053      2.25422944548911
  C   -3.26790403268664      0.33131853245114     -0.79935477959310
  C   -5.55029136652257     -1.38566499139117      0.31941624034389
  C   -3.66496326014653     -2.50026198993327     -1.81435226062888
  C   -1.00376560220327     -3.71817200714529      2.49448287007581
  C   -3.30373612488659     -4.93477896638947      0.92245122925436
  C   -3.88705869062484     -3.24791528583785      3.40917617498783
  H   -3.51538893114334      1.07282196700426     -0.04283573703118
  H   -3.77873478595247      0.62023596429532     -1.71843194194310
  H   -2.19486922309910      0.40227971743851     -0.98542517959322
  H   -5.65143188063629     -0.77783758037690      1.21821163227416
  H   -5.90076548077331     -2.38963349226198      0.56222520666221
  H   -6.22618825812884     -0.98018543070741     -0.43413639307970
  H   -2.63977053098539     -2.54527564545607     -2.18297518209493
  H   -4.28943575246340     -2.11069948362449     -2.61954094534647
  H   -3.98694622650720     -3.52073647045368     -1.61354673241483
  H   -2.66624956679563     -5.08400044719366      0.05248741331654
  H   -4.33080682963358     -4.85517249729508      0.56717159412666
  H   -3.24375490839236     -5.82988454601903      1.54225327623880
  H   -0.29523116186766     -3.92510708446473      1.68555002456492
  H   -0.99764116935934     -4.60791166883805      3.12329894544470
  H   -0.59607799334997     -2.93103126437653      3.15085377200963
  H   -3.55585578653496     -2.41780550167558      4.03230372863664
  H   -3.88075466713661     -4.15353555184143      4.01692933477200
  H   -4.91964692640779     -3.04675112966775      3.12519463850459
  H   1.11324863402240     -1.82238490287910      0.16970808015538
  H   1.70876225815665     -1.82421793301269      1.86877343394926
  H   2.74732213696224     -1.41709692075951      0.53890939822335
  H   2.60564414931864      2.35622909280581      2.32039063655643
  H   3.66788965579977      1.01343986636191      1.93381586725292
  H   2.51003197568700      0.87442308807818      3.25775878958885
  H   0.03496844498870      1.92900311755100      4.51557439702989
  H   -0.90082218752515      3.40857621941865      4.33266763474441
  H   0.64511453078945      3.24193028694371      3.51748301495120
  H   -1.97819871022146      2.97826955671645      0.20006902789000
  H   -0.56192103508360      3.83029067796020      0.79282098091583
  H   -2.12866906456783      4.12114894806964      1.53274282366956
  H   -3.34867182038171      0.73387481315986      2.19382697885046
  H   -3.40708739146617      2.02763363956881      3.38227668559183
  H   -2.58448001448473      0.51832651619848      3.75435864198468
  H   0.99704934148304      0.90235070754765     -1.37557403799504
  H   2.68890477140384      1.21965158598198     -0.98254397066023
  H   1.45427851282750      2.42097019204599     -0.62404565684198
