37
Coordinates from ORCA-job orca
  Co  1.03670138869997     -0.52399583413233      0.11995522707532
  N   -0.70921975410180      0.23297448764939      0.00524173017194
  N   0.04050584825365     -1.95935752707484      0.85737540793044
  N   1.99866263724256      0.90488458398741     -0.65965732598684
  N   2.76036652393352     -1.27685259735244      0.31631164712185
  O   -0.95563617601407      1.45328260012556     -0.50847516804664
  O   1.39424621800468      1.92320254295459     -1.23641055210797
  O   2.95926320308677     -2.40939327203953      0.94548343221724
  O   0.58355893738901     -3.10537253062158      1.30251797889934
  C   -1.24587009385406     -1.78339306978295      0.97402132032952
  C   -1.69115531731477     -0.49348871512555      0.46288112675102
  C   3.29748057225443      0.72143726504189     -0.72149752676915
  C   3.74148171552277     -0.52466166934105     -0.12690647784339
  C   -3.11016458691240     -0.05444800902325      0.47922389106661
  H   -3.21597383754485      0.89165534797171     -0.03852756004215
  H   -3.46814877972145      0.07506787101585      1.50144252566893
  H   -3.75848256295427     -0.78881120641928      0.00207486464879
  C   -2.13643538342824     -2.80386619668277      1.58230624687644
  H   -1.75909046863803     -3.09778340574616      2.56085720720484
  H   -2.15964405569927     -3.71073468341186      0.97707099602559
  H   -3.15156548445943     -2.43847358751080      1.69444599695233
  C   4.20487936103299      1.68258054578705     -1.39872204169648
  C   5.16908044889245     -0.91961097850491     -0.01394552164532
  H   3.73092858929473      2.65738311213445     -1.45890897457599
  H   4.42840222864450      1.36352400259614     -2.41945864131160
  H   5.15374856747297      1.77359286211942     -0.87422800673357
  H   5.23578123546196     -1.96609882456346      0.26420843830307
  H   5.69199572259821     -0.33508756441770      0.74640730180753
  H   5.69741102762867     -0.76760816740346     -0.95417655622419
  H   0.01041698691932      1.75657602760784     -0.83599056510454
  H   1.62369432782187     -2.92222717444460      1.16582045855781
  O   0.78449624733144     -1.19188659304285     -2.15504180179291
  H   -0.14575871305283     -1.43652449424662     -2.22127269579207
  H   0.81611190740794     -0.28950451848666     -2.50175797824048
  O   1.38217082813980      0.31414930791396      2.30595926233722
  H   1.96174832582462      1.05069137656631      2.07591906180214
  H   1.98681836483663     -0.37909631409693      2.60146927216531
