14
Coordinates from ORCA-job orca
  O   -0.99720137305757     -0.51466903936547     -0.34003995319497
  C   -0.73943568183793     -0.76245991807152     -1.50088180352111
  C   0.11985462570231     -1.86140910678620     -1.96369673610536
  C   0.72556394268569     -2.73002720138113     -1.05354204269121
  H   0.54981936296162     -2.57938443816892      0.00262806172517
  C   1.53027163124880     -3.75594585216094     -1.51030807821666
  H   2.00040292214320     -4.42986541954200     -0.80682583672595
  C   1.73740493967364     -3.92428401629184     -2.87659642635729
  H   2.36831401768705     -4.72891302193576     -3.23067184414559
  C   1.13821968877352     -3.06457522032810     -3.78707437895724
  H   1.30124296313365     -3.19838872064956     -4.84782682044443
  C   0.33130355381971     -2.03532442409026     -3.33054634500640
  H   -0.14066463790275     -1.35888056275422     -4.03322718451846
  H   -1.16303595503094     -0.13930305847408     -2.31727061184045
