10
Coordinates from ORCA-job orca
  C   0.53429877873946     -1.41851909045139     -1.16979840998321
  C   1.31256558923476     -0.24383987894800     -1.18293607009659
  C   1.44224866444011      0.20755153491899      0.14566165744622
  H   1.73727987322467      0.22997303296268     -2.06171088575556
  C   0.74411364795557     -0.68814779364392      0.97997908146891
  C   0.18269224863928     -1.69293224142479      0.16694146104725
  H   -0.41482418530576     -2.53103087665119      0.50999262315164
  H   0.25522322237034     -2.00835976200362     -2.03657305794108
  H   1.98427524177109      1.08991758915287      0.46930989787180
  H   0.65416691893049     -0.61651251391160      2.05881370279063
