13
Coordinates from ORCA-job orca
  C   0.48173367766022     -1.28913425274697     -1.19506260112329
  C   1.49300569657359     -0.29419950363530     -1.16948782101145
  C   1.65271161029746      0.12608688154580      0.17941732851438
  H   2.07179661500894      0.04813869855657     -2.01159889570757
  C   0.71786631146609     -0.56521992636525      0.96858816304871
  C   -0.03019980380001     -1.42593828114940      0.11959129665321
  H   -0.81801485173968     -2.09219864761243      0.43076885399385
  H   0.13208748957275     -1.81332078285089     -2.06780990854471
  H   2.33976868380999      0.88008274649415      0.52563188440982
  H   0.56184578360737     -0.43511257164241      2.02660094847112
  Ta  -0.54415010422836      0.76658442962503     -0.61311751047161
  Br  -0.67531017872157      2.69093481812066      0.80920820547080
  Br  -2.09099092950684      0.66231639166032     -2.43371994370318
