13
Coordinates from ORCA-job orca
  C   -0.47816113077831     -1.66034108154372     -0.79996351036193
  C   0.74977285422522     -0.98344850300423     -0.61513015094734
  C   0.89956750645996     -0.72257380236681      0.77576577219855
  H   1.45899560367524     -0.72797238327369     -1.38567842533321
  C   -0.24140089281440     -1.20496814291689      1.43723442827863
  C   -1.11718108878539     -1.75930751030369      0.46215971358956
  H   -2.07550909417409     -2.21284888612109      0.65657202688766
  H   -0.88261254615181     -1.99243123254180     -1.74062959614227
  H   1.72701321224911     -0.20575512133508      1.23338126497252
  H   -0.44562318576260     -1.12176588736407      2.49157558871276
  Nb  -0.98176932287311      0.53528443772146     -0.05762634001796
  Cl  -2.10096341517444      0.93959514691519     -1.96831485582632
  Cl  -0.91116850009537      2.06471296613443      1.59727408398934
