20
Coordinates from ORCA-job orca
  C   -0.62074357502335     -0.15023754487130     -0.22672639890665
  C   0.53179203929329      0.62922154553421     -0.53045131169826
  C   1.51116443534712     -0.23888439023665     -1.06465031893921
  H   0.64174738174255      1.68707190956297     -0.36796298746065
  C   0.98784872518493     -1.56029574049100     -1.08179081646009
  C   -0.33949216076041     -1.49076167540678     -0.57796071182470
  H   -1.00758179048524     -2.32794196591106     -0.46553221370806
  H   -1.53556541667999      0.21384405253464      0.20693705371587
  H   2.49790538669613      0.04344296005567     -1.39096921968085
  C   1.70171799981065     -2.78636994105627     -1.52525582660666
  Mo  -0.33121686261070     -0.18470182488597     -2.54754549464016
  C   0.64649855627859      0.50615705428870     -4.12157490266173
  O   1.25877757532241      0.93043067066475     -5.01040897326867
  C   -1.44736659762005      1.40162523953362     -2.79015349181714
  C   -1.80081274370072     -1.12025490880833     -3.48441919851995
  O   -2.10445686458113      2.35089422807056     -2.89958592874109
  O   -2.67704040091074     -1.68472971488028     -3.99276129718247
  H   2.44357072337036     -2.56184790082267     -2.28815074773631
  H   1.01331800508555     -3.52773689308662     -1.92430946374795
  H   2.22629558424073     -3.24681515978819     -0.68514775011527
