49
Coordinates from ORCA-job orca
  C   -1.11900789391108     -1.14060549270523     -4.86883501025244
  C   -1.29806422977759     -1.57269915422794     -3.53614146213377
  C   -0.49101281552470     -2.72025858701928     -3.32681340130639
  H   -1.92769527300052     -1.10072593502261     -2.80173919093628
  C   0.19596133126086     -2.97947324559940     -4.53566815264978
  C   -0.18871795719414     -2.01027053509133     -5.47951451235535
  H   0.16917661431556     -1.92620718705164     -6.49153360139303
  H   -1.57658699456609     -0.28013637810624     -5.32598363751154
  H   -0.40314205896105     -3.28697729837471     -2.41594452241014
  H   0.85488404836410     -3.81053717000642     -4.71359604844774
  C   -4.63981599730732     -2.93933493480707     -5.62309778107443
  C   -4.42615069418503     -2.12215738663434     -4.49508001159817
  C   -4.23860277196872     -2.96267793760789     -3.37322483312599
  H   -4.39761904733245     -1.04505793192006     -4.48878011557668
  C   -4.33468087866340     -4.29892918773085     -3.80287639821326
  C   -4.57318999330569     -4.29032726186303     -5.19682580969504
  H   -4.67872469339052     -5.15682232169320     -5.82400023072785
  H   -4.84787181871353     -2.60303522466826     -6.62416163770943
  H   -4.04364887502886     -2.63729707019286     -2.36482537881281
  H   -4.20266124101852     -5.17457873441179     -3.19231443959084
  Zr  -2.28031159268851     -3.37604492849692     -4.90586592916690
  H   -0.23505727590443     -5.53162985166089     -7.18556314885459
  H   0.47265952517936     -4.04353809379977     -7.81232507543189
  C   -0.35743559110740     -4.73664307018644     -7.91438247859616
  H   -0.36121619924509     -5.15516693884448     -8.91666997592180
  H   -2.42829208918080     -6.70696609760754     -7.21957030426595
  C   -3.19251366322106     -6.32154332369584     -7.87912447339392
  P   -1.92642487992834     -3.86034146770182     -7.52031117790568
  H   -4.17970673485013     -8.20750532123283     -8.05982983107923
  H   -2.79562964575202     -1.12485306824733     -7.25322739597086
  C   -4.19563083370952     -7.16144692567362     -8.33531902511080
  C   -3.20019004479462     -4.96884724707063     -8.22403044424172
  C   -2.43606965272391     -1.21902293237957     -8.26935637812902
  C   -1.92836863367276     -2.44439434463413     -8.69030827080870
  C   -2.47528764349465     -0.13487689651289     -9.13455748849106
  C   -5.22022920159674     -6.66565429534134     -9.13165367768135
  H   -2.87121233480034      0.81267335204635     -8.79379202116558
  C   -4.23252392596175     -4.47485461293928     -9.01848820558681
  C   -1.46573169633870     -2.56976482227805     -9.99985887382887
  H   -6.00431292075540     -7.32371674376328     -9.48201631066046
  C   -5.23730285615643     -5.32039060716122     -9.46745810673795
  H   -1.08649280517166     -3.51806328777237    -10.35458268876321
  C   -2.00452002251525     -0.26578375353656    -10.43258001084377
  H   -4.25032346773345     -3.43031415943523     -9.29629272682234
  C   -1.50069295067402     -1.48640341166782    -10.86356099105784
  H   -2.03137349707880      0.57863114846955    -11.10855637176148
  H   -6.03278038021967     -4.92434583749350    -10.08482934331205
  H   -1.13614673196833     -1.59504829451873    -11.87640288567279
  Cl  -1.49896101368378     -5.80013519234460     -4.73003021301694
