61
Coordinates from ORCA-job orca
  C   -1.45737620590570     -1.45654627314307     -4.10739012057362
  C   -1.72562574266088     -2.33315180696394     -3.03038292998592
  C   -1.05966329548987     -3.54530511760597     -3.28166833022546
  H   -2.32642953214275     -2.10994621491054     -2.16457938314582
  C   -0.39695746098883     -3.43456374432260     -4.51869793526279
  C   -0.63255564208585     -2.13149094166944     -5.02932432952417
  H   -0.21382709027839     -1.71372874341563     -5.92822409215781
  H   -1.81233746919701     -0.44452829620589     -4.19969143374586
  H   -1.05880918948576     -4.40641747040998     -2.64066618464304
  H   0.20708139577890     -4.19708669598039     -4.97592753435655
  C   -4.65547344550940     -2.12597201280252     -6.44700381191269
  C   -4.44676119807154     -1.32953222254395     -5.30586970528214
  C   -4.88279041593199     -2.05841844735535     -4.17734832946945
  H   -4.03738208197650     -0.33375157065687     -5.29764923025626
  C   -5.36180704572798     -3.30606624491180     -4.62084418382815
  C   -5.21138201198992     -3.35720769602512     -6.02314373238034
  H   -5.47734034991310     -4.18058912888997     -6.66028866872905
  H   -4.45632948652599     -1.83013754454535     -7.46151929450633
  H   -4.85657610280642     -1.71789321221918     -3.15557625820315
  H   -5.76815312176951     -4.08071693503291     -3.99754791308639
  Zr  -2.87069903224389     -3.29858709479293     -5.07424368982504
  H   -0.13473211821160     -5.30336451736196     -7.12847832498259
  H   0.38051341085330     -3.64939893485262     -7.44580235491078
  C   -0.29811151793626     -4.43632492238696     -7.75938782914391
  H   -0.08439253779189     -4.68969120696723     -8.79420610356009
  H   -1.67904860844703     -6.68891647634600     -8.23355748141595
  C   -2.60935734701707     -6.35319335320449     -8.66811435524115
  P   -2.02555597066802     -3.81299968551318     -7.58497348571244
  H   -3.10164957444830     -8.30623531122562     -9.38353164510316
  H   -2.07492705664045     -0.91924849861988     -7.21371132256763
  C   -3.41852202315856     -7.27414453863040     -9.31467652059431
  C   -2.99527215507147     -5.01640233794248     -8.56480373094521
  C   -1.94098462660258     -1.08208299285110     -8.27435438936471
  C   -1.92630622558518     -2.38438113832889     -8.76175460110586
  C   -1.80335866789033     -0.00316543465100     -9.13661408930780
  C   -4.62920707273095     -6.87883339530918     -9.86580866724779
  H   -1.81951489389077      1.00509332647883     -8.74409047879653
  C   -4.21177152968062     -4.62645476076038     -9.13121113308169
  C   -1.77113421786438     -2.59153719972172    -10.13149250695025
  H   -5.26225697974766     -7.59966330899140    -10.36538468052243
  C   -5.01976941115175     -5.54927764219974     -9.77355040726642
  H   -1.77261542643343     -3.59873128024340    -10.52676614394676
  C   -1.65187297680767     -0.21744159047834    -10.49844762347468
  H   -4.52012988892576     -3.59135012446509     -9.08701421595426
  C   -1.63665240429440     -1.51505357964492    -10.99405494270847
  H   -1.54819541216913      0.62224844069021    -11.17298623713275
  H   -5.95708042072940     -5.22781184621066    -10.20830375372656
  H   -1.52250117430451     -1.68827177142528    -12.05603911657951
  C   -3.16463034947450     -5.64462383734374     -4.47635485369527
  C   -1.88146097432950     -6.42747691306490     -4.73515387535533
  C   -4.24550558462085     -6.31766309043810     -5.31877403342983
  C   -3.54934598131205     -5.83728709063174     -3.01304638843759
  H   -2.79368996250022     -5.47146446751198     -2.31924255386603
  H   -3.69538335029337     -6.90419173725043     -2.78144062526677
  H   -4.48230040039334     -5.33488923414391     -2.75690664454179
  H   -1.57605230951536     -6.36992213482269     -5.78003176744095
  H   -2.02547047004760     -7.49666467676110     -4.51243844980610
  H   -1.03933432024485     -6.09685455255695     -4.13013132274075
  H   -4.07717340824766     -6.20859774975565     -6.38790448925835
  H   -5.24505908991007     -5.94521641635919     -5.10306325200990
  H   -4.27184244632182     -7.39899660404804     -5.11217851181026
