13
Coordinates from ORCA-job orca
  P   2.40731386735421      0.31397399703218      3.68803033952909
  C   3.70973164790434      1.06598408198277      2.60290047090809
  C   3.49362871252313     -0.33822300900782      5.04238356331218
  H   3.23795955526345      1.64187952474765      1.80916193926028
  H   4.29457628315191      0.27785425290043      2.13272888822204
  H   4.38673313047051      1.72070909639402      3.15317050976903
  H   2.87884210932078     -0.69673210232336      5.86564100569393
  H   4.18304434447035      0.41561978531523      5.42474787524448
  H   4.07212134829630     -1.18288804026361      4.67340590073661
  C   1.79072767067530      1.85273229536587      4.51960581791905
  H   1.23770082604960      2.45916949474204      3.80498741517189
  H   2.59815240652911      2.45577379565944      4.93696134232185
  H   1.10580809799099      1.58595682745517      5.32207493191146
