   32
FINAL HEAT OF FORMATION =     0.000000
 O    -0.197238    -0.884296    -0.609560
 C    -0.396524    -1.749166    -1.719518
 C     0.632181    -1.532883    -2.823470
 H    -0.377362    -2.795881    -1.398276
 H    -1.395920    -1.546092    -2.104808
 H     1.544149    -4.041169    -3.319560
 C     0.874988    -3.689227    -4.095562
 C     0.344068    -2.404103    -4.008729
 C    -0.511224    -1.971505    -5.019894
 H    -0.931228    -0.974068    -4.969367
 C    -0.824775    -2.796604    -6.089848
 H    -1.486213    -2.439995    -6.868511
 C    -0.286965    -4.073751    -6.165114
 H    -0.527374    -4.717812    -7.000600
 C     0.564752    -4.518084    -5.163624
 H     0.992779    -5.510576    -5.216249
Si     1.015901    -1.092604     0.501212
 H     2.321035    -0.543336     0.042911
 H     1.203205    -2.556642     0.712546
 H     1.841233     1.359088     4.756949
 C     1.085455     0.948142     4.100429
 C     1.458431     0.327823     2.916937
 H     2.510343     0.270863     2.660543
 C     0.499556    -0.207344     2.054076
 C    -0.847551    -0.096318     2.406147
 H    -1.607893    -0.488140     1.742568
 C    -1.223644     0.528753     3.585676
 H    -2.271863     0.612480     3.841752
 C    -0.257377     1.049145     4.436077
 H    -0.551054     1.536373     5.356897
 H     0.619017    -0.479749    -3.104040
 H     1.628033    -1.747352    -2.432301
