16
Coordinates from ORCA-job orca
  C   1.25517579314771     -0.53755199390313      1.46419805343712
  C   0.69583755769289      0.55425272077394      0.92832572902899
  H   0.95431202635962     -1.52852435463819      1.15305959231920
  H   2.02281843645473     -0.49240325685081      2.22195981963668
  C   1.09535480670894      1.90761031124972      1.34204264188395
  C   0.53556729375932      2.99940807237239      0.80662518345624
  H   -0.23247899074190      2.95425077875974      0.04927297571596
  H   0.83641058260726      3.99038107784655      1.11778118502208
  C   -0.36619024345609      0.40883272044478     -0.12124719090977
  H   -0.56319708795454     -0.63886722154039     -0.33130669608140
  H   -0.07237936481990      0.88806507381403     -1.05531093108868
  H   -1.30312967440679      0.86928013364673      0.19274867585709
  C   2.15775007078274      2.05303588724685      2.39124269694780
  H   3.09431237849047      1.59176348064351      2.07736430135185
  H   1.86381361873135      1.57462087589750      3.32569632195212
  H   2.35545279664410      3.10074569423648      2.60059764147094
