77
Coordinates from ORCA-job orca
  N   1.58222572456095      1.05275313300375      1.56524377970101
  C   1.26901302918417      2.05674134439525      0.75875882816830
  C   1.82102843213974      3.33354794972569      0.85960624427678
  C   2.46693200193860      3.89219989244509      1.95827341362497
  C   0.22869805844887      1.86562707563132     -0.31276027938447
  H   0.32571596516677      0.91290753467996     -0.82355285062427
  H   0.27913431009581      2.66798600868489     -1.04258824631896
  H   -0.76736494754432      1.88231933458427      0.12792014467497
  C   2.77021015136373      5.36632296814326      1.86408278424891
  H   3.80352592501126      5.56684204001193      2.13687336736102
  H   2.15298888693795      5.94898564039193      2.54378135786327
  H   2.59681013241370      5.73007633760724      0.85612587577224
  N   2.78941145962587      3.23196201579594      3.06973364533154
  C   0.78320779225595     -0.12838109143656      1.46821476593604
  C   -0.41996732396275     -0.20996321976005      2.18101651117354
  C   -0.98286729927732      0.95497494010713      2.93300934205627
  C   -1.14994752116429     -1.39617550481348      2.13168922813903
  H   -2.07036188033633     -1.46889549906706      2.69874760656018
  C   -0.72369594159056     -2.46476910190008      1.36648954479475
  H   -1.29590295703123     -3.38280560622607      1.34430923475519
  C   0.42657978830007     -2.34171559148737      0.60335608667853
  H   0.74574141890148     -3.16264588294508     -0.02602417678328
  C   1.18841771814660     -1.18122434569755      0.63039255910782
  C   2.37148329411027     -1.04690066074153     -0.27271548228709
  C   3.07221009442937      4.04974513227867      4.20959071181131
  C   4.38655632908236      4.35670550202624      4.58765557597780
  C   5.56815100600161      3.99607952850139      3.74585864297249
  C   4.59335795741353      5.10043274776949      5.74561514191194
  H   5.61024760893828      5.32095617589973      6.04659189292572
  C   3.53463592436181      5.55748812299641      6.50800895383032
  H   3.71704388543829      6.12132304825897      7.41337088342988
  C   2.23887008703020      5.31978164865898      6.08288738063339
  H   1.40245378381076      5.71535225923380      6.64642029094781
  C   1.98853872452453      4.58970750115216      4.92650978420164
  C   0.57787480366931      4.46679700437516      4.43764335459639
  Cr  3.04497075277727      1.12623896334209      3.07986176764215
  H   -0.24631110123021      1.73164316760335      3.08482956849474
  H   -1.36479004114206      0.65166971918843      3.90606793753707
  H   -1.82114954412122      1.39239780691667      2.38672712781573
  H   3.23808131364596     -0.69859625009358      0.27504789569789
  H   2.17607246233260     -0.33972323781658     -1.08171048490730
  H   2.62001363314464     -2.00285251173187     -0.72676444082695
  H   5.27722819522347      3.42974243759014      2.87194386461456
  H   6.27593825406355      3.39238321857429      4.30799294898306
  H   6.08658070938702      4.90102517459330      3.42202616070822
  H   0.43082640581833      3.59881126427839      3.80675075083007
  H   0.30154372963846      5.33670153455124      3.83787578503744
  H   -0.12504255736614      4.42238037474128      5.26728173864087
  Cl  3.56528206956214     -1.14347187616797      2.78147574984748
  Cl  4.47792841385222      1.18512988468033      4.91978525286015
  H   1.60012585579729      4.00928220975479      0.04924503970510
  O   1.58189930341002      0.60602370371163      4.50115854338931
  O   4.69251353629351      1.47271652543572      1.78780539738820
  C   1.47976445667245     -0.78652927775744      4.95823652707063
  C   0.64963328566236     -0.70864021159141      6.21276106210644
  H   2.48217377806987     -1.14613624285126      5.16310328332488
  H   1.04908255141263     -1.35529820136952      4.14476827775624
  C   1.32956737456565      1.48224079978327      5.64580518210892
  H   2.15519543326796      2.17345896312278      5.73694205263133
  C   1.17060368629363      0.57427049263106      6.84253151563404
  H   0.41255890240155      2.02039562024372      5.42455858230710
  C   5.96990122249873      0.81050559041201      2.02325316619459
  C   6.28305673878728      0.14878385889054      0.70883216334128
  H   5.83640576445163      0.13565928351904      2.85501984358302
  H   6.69709234991039      1.58041552801072      2.28685050108279
  C   4.62184668857466      1.85190469186017      0.38639323673361
  H   4.64850490603482      2.93735915746236      0.32786974139470
  H   3.66710131955617      1.51231529385701      0.00887138579742
  C   5.80765168808191      1.18574085926705     -0.30343700110515
  H   0.79665904105814     -1.58606004650243      6.83875557072113
  H   -0.41253297858676     -0.62829431481126      5.97939455223612
  H   0.49953679963738      1.00160044142258      7.58461623315789
  H   2.13873736155538      0.40094616783828      7.30891048998699
  H   5.71085983680115     -0.77307679675208      0.62952227950206
  H   7.34038051990455     -0.08688826247646      0.60789179668188
  H   6.59335923516113      1.91426070151002     -0.49930883386191
  H   5.51793222474550      0.74523541284577     -1.25480810990890
