31
Coordinates from ORCA-job orca
  O   1.89178641064624      0.82373289416932      4.34061184942865
  O   3.67125183033391      0.78805448800328      2.72544318465444
  C   0.56368466557661      0.96221318633236      3.72892819165604
  C   -0.36777724172642      1.75995591820711      4.59605513257597
  H   0.18487093002894     -0.03755283269937      3.51587224913983
  H   0.75297748112749      1.46742784713212      2.78415505617185
  H   -0.59490014922532      1.25882893970147      5.53334105495219
  H   -1.30932038014293      1.89684852073914      4.06712726554466
  H   0.04268014964930      2.74268369460996      4.81380696378896
  C   2.00784937498813     -0.21084389446778      5.37503094534758
  C   3.37561264645602     -0.14871787401035      5.99038365110084
  H   1.80313088604341     -1.17524873974797      4.90828976663110
  H   1.23216719255620     -0.00528081194478      6.10638811564488
  H   4.15951929730154     -0.36958676009457      5.26972587484253
  H   3.43720092427433     -0.89340824842997      6.78116303165220
  H   3.56426069395893      0.82565023271559      6.43454749688747
  C   3.36946904199044      0.05852509218092      1.48962545963589
  C   4.27984612857835      2.12461845800634      2.58544740870378
  C   4.61416757867737     -0.43897224995380      0.81386174770745
  H   2.78055149428320      0.71172599880617      0.84542400074210
  H   2.73875113500839     -0.76559672372015      1.81656192416733
  H   5.24201343876240      0.37375258367660      0.45688967305301
  H   4.32946809188709     -1.03236717088555     -0.05321458611420
  H   5.19852454449075     -1.06994560976554      1.47868070488627
  C   5.68658125999203      2.12498492174363      3.10824898082786
  H   3.63741437685675      2.80014563538909      3.14724102371626
  H   4.22250586529616      2.39832711464648      1.53482159926984
  H   5.71769819674551      1.84132600027035      4.15744890297143
  H   6.09835314251956      3.12943300769533      3.02222810039244
  H   6.32558624674296      1.44927946408829      2.54657029818979
  H   2.77371474632774      0.77823691756756      3.51578493183691
