80
Coordinates from ORCA-job orca
  N   1.74085473227748      0.95022269272719      1.78449766890484
  C   0.77575849259687      1.71313965463420      1.24874073153640
  C   0.62297549162759      3.06024917733402      1.54790141567159
  C   1.42344340510250      3.81602634417853      2.39935243742451
  C   -0.16295545492484      1.09456759265805      0.25883965960097
  H   0.37122498170711      0.65879290373972     -0.58233556902346
  H   -0.86580295818602      1.82757513290051     -0.12033387930214
  H   -0.72533772572019      0.28546073752045      0.72091051469233
  C   1.20019381632544      5.29300716812520      2.47828479289894
  H   2.14283980884293      5.83085988765729      2.53670852533592
  H   0.63153346478126      5.55180483907861      3.36977052334813
  H   0.64378240483754      5.64713603544910      1.61708650576206
  N   2.38844639935348      3.25578099439872      3.12706473993754
  C   1.97142213646451     -0.35611476704623      1.24804632992919
  C   1.34237282232328     -1.48131475095929      1.79493983045898
  C   0.32841642715745     -1.38765238130343      2.89261539273069
  C   1.61986401827597     -2.72691569185981      1.23198307489801
  H   1.13787810298320     -3.60516901773105      1.64179060187707
  C   2.46759265227098     -2.85041269568182      0.14752577417703
  H   2.66104959679312     -3.82414145649463     -0.28055268239241
  C   3.06152630044455     -1.72196386795974     -0.39932678115013
  H   3.71079037790424     -1.81834081669949     -1.25967577901392
  C   2.82709857769162     -0.46299108386601      0.13626836532970
  C   3.41617012518221      0.75118487478998     -0.51105809579855
  C   3.16051127105540      4.00279062751056      4.06285843863932
  C   4.47278509995379      4.37602030734564      3.72242362996891
  C   5.01211704392180      4.21853572220139      2.33342898750201
  C   5.25437943122150      4.99942257409649      4.69084359672783
  H   6.26802036877264      5.28794352478125      4.44481398012189
  C   4.74490500393684      5.27385805438904      5.94729454340239
  H   5.36597943817572      5.75703636599733      6.68840833086630
  C   3.43280279731082      4.94734224360033      6.25038442600245
  H   3.02956850945522      5.19523563436755      7.22345902145185
  C   2.61448964592179      4.31509539977591      5.32219215009840
  C   1.18086422342981      4.04924588744252      5.65784616169120
  Cr  2.93485852717988      1.40611377130024      3.22592931149423
  H   0.59893600622642     -2.01767693820910      3.73915189612499
  H   -0.63913486415113     -1.74495056998816      2.54042284999579
  H   0.19919514179999     -0.37548110595966      3.25595602412547
  H   3.69218921274440      1.51416828268604      0.21150366611342
  H   2.70103621673567      1.22098268851358     -1.18805813809564
  H   4.29304556449692      0.49594229311699     -1.09964528563843
  H   5.06852652683916      5.19038936043445      1.84205613052646
  H   4.38355167455890      3.59078804951346      1.70907976071170
  H   6.02264222811724      3.81495526502361      2.33935010477491
  H   0.72557612204206      3.31744079196132      5.00074109805319
  H   0.59816586300535      4.96761573086726      5.57764246096730
  H   1.07060980219518      3.70259314845003      6.68016601306257
  H   -0.16209106083288      3.58529187658181      1.02905136073746
  C   2.25293464353307      0.65280277889761      4.96158725824417
  Si  3.33918083494096      0.67580120119350      6.52002295995302
  H   2.00823529741314     -0.38593597143977      4.73287823850554
  H   1.30292110319131      1.15792754995473      5.13994054943732
  C   3.55915054183156     -1.10226011821699      7.10305767116767
  C   2.50207871703366      1.61061356000696      7.91961280570635
  C   5.03100973772298      1.44807931896624      6.24225808232888
  H   5.67267135511430      0.83076964116751      5.61973937725850
  H   5.53657284431216      1.56974514641495      7.20009749849228
  H   4.96657513699207      2.43501570732785      5.78951216802941
  H   2.59776141127067     -1.55058408308792      7.35290095441407
  H   4.17147425542403     -1.13094007283642      8.00451746018370
  H   4.03860638461133     -1.74653521691669      6.36899545962222
  H   1.43877501870463      1.38806552323976      7.99225676420402
  H   2.62341215368679      2.68583108289440      7.82433351994150
  H   2.95912225480350      1.32121285371836      8.86612010653423
  O   4.59314768669042      0.14458066455735      3.04904356884501
  C   5.68357052343113      0.61621192197305      2.21843522510637
  C   6.96478754896321      0.84704868674169      2.97219743415468
  H   5.31836129079091      1.54857833721914      1.79635183404263
  H   5.81124416075949     -0.08043956796209      1.39333041695587
  H   6.83041055162265      1.56971217287232      3.77260740112258
  H   7.71197257323546      1.23763748579237      2.28287746674713
  H   7.36688884790163     -0.06954618912516      3.39704443624210
  C   4.76032768534082     -1.18346500192827      3.62713017816724
  H   3.78125507310276     -1.41747305501135      4.02617506238492
  H   5.45279668245314     -1.09876798380964      4.46218989394169
  C   5.19458920638088     -2.24052733819421      2.65058516905423
  H   4.53994443506057     -2.27895620684716      1.78598760072766
  H   5.13605372147358     -3.20423227007478      3.15410291063321
  H   6.22224053234790     -2.11802104937980      2.31746591076746
