15
Coordinates from ORCA-job orca
  O   -3.89814530690746      3.09265087225493     -4.01498262832326
  C   -3.87930143938679      4.34076784950805     -4.68753235609275
  C   -3.56944576475186      4.25370878108467     -6.16875669329910
  H   -3.10802315547281      4.92159348785692     -4.18159388400978
  H   -4.83111110992330      4.86625098483574     -4.53364038511520
  H   -2.63269630958891      3.72428046568894     -6.33467833915675
  H   -3.47622013004980      5.25505589509285     -6.59088221026197
  H   -4.35546065833357      3.73861394011651     -6.71893350531236
  C   -5.00250241427256      2.24732909738752     -4.32105531451458
  C   -4.59470599793215      1.05053831481652     -5.15316345715098
  H   -5.79170414039737      2.81674894828483     -4.82324546904226
  H   -5.41532263518527      1.90709296151580     -3.36777440583770
  H   -4.22919935201368      1.34801406819926     -6.13376613554711
  H   -5.44264673007073      0.37843095476439     -5.29336679858027
  H   -3.80256485571380      0.49566337859280     -4.65370841775590
