72
Coordinates from ORCA-job orca
  Si  -0.02388267360993      0.34821229358996      0.19556171205892
  C   1.84030978399685      0.04246821226354      0.04167940143087
  C   2.59379096759575     -0.86263906515463      0.78946129742478
  H   2.11824193123906     -1.44634622921605      1.56843494332469
  C   3.94231977953896     -1.05989017389244      0.53140262308835
  H   4.51041609487147     -1.77198365086488      1.11671135552195
  C   4.56219779900113     -0.34381367795252     -0.48406443058696
  H   5.61343159733273     -0.49581098125622     -0.69323827471458
  C   3.83056881228148      0.56198052019025     -1.23827992388024
  H   4.33134552723543      1.11281135655928     -2.02373029121416
  C   2.47532715312803      0.75534303493709     -0.98334221039020
  P   1.42396575237664      1.99699567358730     -1.87186149630837
  C   -0.57904072832026      0.91701568412204      1.91104488717529
  C   -0.04406819751064      0.57015393434320      3.15038419967006
  H   0.86222183999064     -0.02140948179094      3.20039229431035
  C   -0.64743951511716      0.98398949880875      4.33017103032202
  H   -0.21173650342930      0.72032842843546      5.28582476434630
  C   -1.81418924119586      1.73524653137815      4.28339967307381
  H   -2.29345358409626      2.05322441503772      5.20054533607944
  C   -2.36171451004073      2.08754229354550      3.05738386204426
  H   -3.26942147938009      2.67807901457331      3.03865606709011
  C   -1.73847804546636      1.70240164191789      1.87426142456695
  P   -2.34496799852562      2.20758894224568      0.19082120037715
  C   -0.84909711259276     -1.35508287645953     -0.01218283760835
  C   -0.85575580234409     -2.38217394402154      0.93075405112680
  H   -0.37862152537022     -2.23245820462697      1.89229207482909
  C   -1.49266196857391     -3.58713021633207      0.67277677463376
  H   -1.49978937068132     -4.37052975259625      1.42037412500170
  C   -2.12557583596122     -3.78703182494561     -0.54780262765310
  H   -2.62327566939646     -4.72593510618887     -0.75501544322567
  C   -2.12896517265951     -2.77689613571858     -1.49845211961823
  H   -2.62734806985550     -2.94848086120201     -2.44416957634562
  C   -1.50544852939594     -1.56055653463347     -1.22964471016857
  P   -1.44882983547673     -0.13990714762248     -2.41397613711487
  Ru  -0.81462691531686      1.79731172754349     -1.46345212665362
  C   -4.03247490630096      1.45585125814538      0.17660310908073
  C   -2.75354042709586      3.98541669857554      0.50233072688182
  C   -3.08879160772035     -0.27734850445435     -3.25722426987373
  C   -0.35517773431794     -0.84980737500388     -3.72511107938506
  C   2.09852558325420      3.55338127294000     -1.12476509061914
  C   2.21547872772094      2.09408557915736     -3.54090079677536
  H   -3.44943840539407      4.12326057300893      1.32825861174632
  H   -3.18713408835238      4.42291041660937     -0.39171480366715
  H   -1.82907910073154      4.51073742159937      0.72611927087028
  H   -4.61617123132906      1.71654166966151      1.05826082195980
  H   -4.56308961154227      1.78437012005400     -0.71409301029891
  H   -3.91934476788481      0.37556266342638      0.13474368746291
  H   0.63155690235811     -0.99813949296102     -3.29425338680824
  H   -0.27152662608512     -0.14551773586592     -4.54908158622653
  H   -0.72362983990756     -1.80377947972333     -4.10150500064115
  H   -3.87537758572743     -0.04722928504038     -2.54496429635562
  H   -3.26870351278171     -1.26523722303715     -3.67751568534612
  H   -3.13530210212321      0.44673895497048     -4.06569097407335
  H   3.18119305603691      3.62019685827148     -1.23478341850975
  H   1.84556141537055      3.55540070544594     -0.06850359254994
  H   1.63296290657957      4.41807281589360     -1.58998894316803
  H   3.29001647655347      2.26089069262217     -3.49720603550396
  H   1.76932273131158      2.92643620792853     -4.07935612946903
  H   2.01891826167056      1.18130327854674     -4.09566462683120
  P   -1.63796932956563      3.21476906773914     -3.10726760796252
  C   -1.06914549198310      4.97551724095656     -3.07568287005105
  H   0.00435099687425      5.00566954359118     -3.24562499879328
  H   -1.26161037150673      5.39660055136819     -2.09223898273064
  H   -1.56198586911796      5.58716830071048     -3.83184528748467
  C   -3.46344365977753      3.49103590195951     -3.25276988487662
  H   -3.96471416085757      2.53527396534946     -3.37273274523105
  H   -3.71442361020384      4.13195613725327     -4.09774869314428
  H   -3.84178866334158      3.95101001025128     -2.34480766653174
  C   -1.28819106058096      2.82174055165836     -4.88203323093571
  H   -0.21904604718126      2.70568090174186     -5.02668474272275
  H   -1.65785087184674      3.59687446444366     -5.55282782795503
  H   -1.76035512364353      1.87959792671048     -5.14746985662870
