61
Coordinates from ORCA-job orca
  Si  -0.00098488618177      0.29232496301775      0.27999241263911
  C   1.86551868257541      0.03141706310542      0.09841161488350
  C   2.64461890647536     -0.86035353859301      0.83607132048910
  H   2.18459661905159     -1.46687318179145      1.60690182226000
  C   4.00103034097228     -1.00811260487482      0.58600599382121
  H   4.58838703708465     -1.70714673058772      1.16774587651645
  C   4.60457829647810     -0.25976808655214     -0.41579568453498
  H   5.66209897960149     -0.37214383529882     -0.61696054558120
  C   3.84770795772670      0.62853134817589     -1.16530186489760
  H   4.33022582832375      1.20418758099670     -1.94492813170874
  C   2.48555610880548      0.77481100357497     -0.91559258499491
  P   1.43662355251286      1.97137302516018     -1.85227077481664
  C   -0.55155132059080      0.85463706524353      2.00055416538811
  C   0.01510773004977      0.53256683296759      3.23133916027271
  H   0.91577036669617     -0.06821708515423      3.26913287614570
  C   -0.54144564245129      0.99084248508480      4.41863413831651
  H   -0.07715800592829      0.74737212921601      5.36595464498184
  C   -1.69477471288144      1.76179768727455      4.38964177052079
  H   -2.13419465199351      2.11872841869185      5.31217526221736
  C   -2.28232939802312      2.08330796325483      3.17312450925203
  H   -3.18084903612657      2.68741469014306      3.16609840804170
  C   -1.70719306229282      1.65109732544963      1.98282734485452
  P   -2.40896137718826      2.07415012467150      0.32256654961184
  C   -0.85796124510666     -1.38965071901704      0.01881724777645
  C   -0.87972212283924     -2.44722292395737      0.92687962974717
  H   -0.36453837494873     -2.35075484975353      1.87553710033558
  C   -1.58077969547910     -3.61329751186952      0.65469637065488
  H   -1.59683945860516     -4.41969807362597      1.37702466415809
  C   -2.26872010508578     -3.74349858498052     -0.54512468346680
  H   -2.81995548704539     -4.64989030104425     -0.76041427845081
  C   -2.25686489161504     -2.70503447336251     -1.46482225131265
  H   -2.79836891756907     -2.81769007655894     -2.39579356256172
  C   -1.56384574748189     -1.53062103617129     -1.18300815941827
  P   -1.48400502787447     -0.09939151683805     -2.34562113036653
  Os  -0.80846428859094      1.81099385869151     -1.33252520576377
  C   -3.98018542575260      1.10640098353143      0.33966373290729
  C   -3.04652022361100      3.78812781756112      0.52544434297273
  C   -3.12616186811091     -0.08510840145990     -3.17814915419750
  C   -0.43218698795259     -0.80563382674856     -3.68559484497139
  C   2.14262861385716      3.59499366252983     -1.33213753015615
  C   2.08007180879067      1.87434451020504     -3.57956871523719
  H   -3.79533202140345      3.87442545497150      1.31063925566048
  H   -3.48739938481212      4.10103508928525     -0.41797319361368
  H   -2.21211514869568      4.44753859243861      0.74683676192856
  H   -4.55547637440557      1.28944377601883      1.24553784961660
  H   -4.57958289612559      1.38174447906587     -0.52514839544898
  H   -3.74049216557514      0.04807557138111      0.28065010913983
  H   0.55277496273478     -1.01114511529123     -3.27535424835027
  H   -0.33613267058908     -0.07932114340734     -4.48896395272778
  H   -0.84818830431639     -1.73103640284953     -4.08205214533973
  H   -3.90370945345357      0.07542992189056     -2.43868619351660
  H   -3.33425090968670     -1.00491424222977     -3.72234133323404
  H   -3.14176448355892      0.74724699555432     -3.87759175554033
  H   3.21842080159345      3.64450345080885     -1.49788908166673
  H   1.93348378939929      3.73857159343296     -0.27600755112787
  H   1.65257332775752      4.38829562740196     -1.89211073695678
  H   3.12862288307097      2.15601999148714     -3.65675847996611
  H   1.49081602654593      2.55194103497222     -4.19307326009685
  H   1.95468270475484      0.86734474947197     -3.96343400730007
  N   -1.48331879037139      3.19861693811232     -2.60847986031025
  N   -1.86418076055370      3.98624045724425     -3.32029163756664
