51
Coordinates from ORCA-job orca
  C   0.65617189493989     -1.86105666170290      1.89209853744119
  C   0.58796273234379     -1.50447604517560      3.26012605644989
  C   1.78600980246750     -1.89998380480665      3.87300076511888
  H   -0.24620173875631     -1.03545981167029      3.75369799073508
  C   2.59070414590867     -2.51890628140666      2.89186289588643
  C   1.89263323077558     -2.48023491479490      1.66346184702668
  H   3.54141208039554     -2.99433861095839      3.05357708482424
  C   -1.27712612970447     -4.57345899780437      2.08815678146285
  C   -1.59630381173038     -3.56192300709666      3.01965535188288
  C   -1.33691111066556     -4.05583787659654      4.31485402602678
  H   -1.96801428935114     -2.58096095822029      2.78501120739931
  C   -0.88934403222169     -5.39474708661471      4.19067639636981
  C   -0.85990380423386     -5.70051418098999      2.81845614574276
  H   2.01951612989204     -1.80823057533934      4.91973806116039
  H   2.22592630132803     -2.91565650409817      0.73898466998567
  H   -0.12092135565158     -1.71638201258467      1.16074881449930
  H   -0.49882497513183     -6.61383410461343      2.38298447034479
  H   -1.46697982188806     -3.50916099635676      5.23243970163309
  H   -1.33413034357305     -4.50305211606503      1.01542969986184
  Ti  0.71458363181262     -3.90259574187517      3.16153333228244
  Cl  2.10894913768690     -5.61322967463688      2.02470493982833
  C   -0.52698738131966     -6.34735140341381      5.29892376734743
  C   -1.42675421338931     -7.58346582590424      5.19472717137178
  C   -0.71653786672646     -5.71282840768125      6.67388757108742
  H   -2.47426113675478     -7.29371037179858      5.25114274579609
  H   -1.22275908922599     -8.28237876092763      6.00666679340781
  H   -1.27579583239644     -8.10611768714990      4.25301770272031
  H   -1.75838015434368     -5.44332311551223      6.83628123777193
  H   -0.11541460115289     -4.81416630624525      6.79285301201724
  H   -0.43137510425766     -6.41526462483692      7.45695069266133
  C   0.93363641582341     -6.82068852787150      5.14456330999884
  C   1.92096211944372     -5.72585814698938      5.36222332021573
  H   1.09957986247751     -7.17880897463278      4.12833247355021
  H   1.11767914748569     -7.65881884872142      5.81121183973795
  O   1.77526730680128     -4.59232828554442      4.85794669101381
  N   3.00002201811175     -5.92806876824748      6.14143235372065
  C   3.46624560948011     -7.18399126951938      6.68932433598164
  H   3.65799924204636     -5.16471506153134      6.11093005892063
  C   4.03810457250585     -8.16368966304188      5.68970868676842
  C   4.49335511847134     -9.39503306743636      6.15830899421157
  H   4.43267493732309     -9.62423418262173      7.21648886568765
  C   5.02155655349839    -10.33096432160316      5.28530695487802
  H   5.37080340672948    -11.28248936039452      5.66385000555153
  C   5.09744343455372    -10.04954089614429      3.92665301291367
  H   5.50518763497411    -10.78151432618623      3.24214721801795
  C   4.64442577961714     -8.82820511183927      3.45561437155621
  H   4.68695682826285     -8.59646198893317      2.40027235741696
  C   4.12095251014246     -7.88585582580438      4.33192510847126
  H   3.76550862109046     -6.94789227131669      3.92858585966848
  H   2.65670679241198     -7.65471384523590      7.24727372246634
  H   4.22281979347016     -6.93479078956126      7.43306098921650
