50
Coordinates from ORCA-job orca
  C   1.10492673248860     -1.98316609835595      4.34264216259851
  C   0.90179319809173     -2.28349347505077      5.70216589990792
  C   2.14088028459839     -2.71401337618510      6.23546610252991
  H   -0.02254853846464     -2.17911281089963      6.24397322891756
  C   3.10337663795023     -2.65896245425551      5.20114645966252
  C   2.46395826987824     -2.22705445708356      4.02957143175825
  H   4.14521272428254     -2.91665807239058      5.28864792636940
  C   1.41427457143447     -5.25720883275495      2.56810550123822
  C   0.43018024592615     -4.25242543976757      2.57381086495978
  C   -0.54857205390974     -4.59629782244280      3.53721915376750
  H   0.41876666093279     -3.37756894426145      1.94821996400840
  C   -0.19729090650151     -5.84012214514008      4.11271841901935
  C   1.02248716357903     -6.22993976891786      3.51666791649925
  H   2.31976282676177     -2.99854991530281      7.25914110061988
  H   2.92545803772699     -2.09999392806904      3.06498091946555
  H   0.35539069241556     -1.61875273087257      3.66323497595050
  H   1.60202724838334     -7.09973685395933      3.75665203817486
  H   -1.41297752338590     -4.00508274791806      3.78574016119894
  H   2.28598881842325     -5.30053016565456      1.93803306131082
  Ti  1.45841061423578     -4.27668089481517      4.65884838837983
  C   -0.84595155205021     -6.43437349862551      5.34679913835850
  C   -2.36894016425667     -6.37921754692710      5.25721720025747
  C   -0.38918414360945     -5.53070384972201      6.50222211648071
  H   -2.73548036009587     -5.35681475663395      5.19024187006653
  H   -2.80024834640900     -6.83376559909990      6.14466501873052
  H   -2.72439308320367     -6.92263428990577      4.38388974548548
  H   -0.82564959113968     -4.54102574506284      6.40779482022613
  H   0.70865341451518     -5.44190177791181      6.56202436388218
  H   -0.68547831783959     -5.92774859039566      7.46916309898230
  C   -0.39746800070177     -7.90861520496664      5.52878470341037
  C   -0.31425999854815     -8.36242141018735      6.96879384337517
  H   0.54191451138878     -8.08751676053550      5.02858464021071
  H   -1.12781135098152     -8.55026485005821      5.03695363875458
  O   -1.23955457489387     -8.20913446493436      7.75462190527599
  N   0.86109609798717     -8.92931554342902      7.37870956042452
  C   2.00567526473041     -9.30866598988559      6.57193052778915
  H   0.82858896958175     -9.26090374706308      8.33000283168858
  C   2.77902296185311     -8.14987196521990      5.98561304319958
  C   3.47907053895602     -8.30734825705461      4.78708658088093
  H   3.48124790718280     -9.27163999214420      4.29435797564568
  C   4.15402435293859     -7.24574117784825      4.20634494705908
  H   4.68707969798738     -7.39113265336114      3.27741659737696
  C   4.14738595042217     -5.99688922971500      4.81814471007684
  H   4.70556205753564     -5.17910660646324      4.38549999890370
  C   3.48986371665212     -5.84095499407954      6.03848424999710
  H   3.60465162668931     -4.92895742454434      6.60313420982060
  C   2.81439430102144     -6.91555850567045      6.61467530821722
  H   2.31869926223285     -6.79379785192307      7.56715457677686
  H   1.71261950645901     -9.98757385940105      5.76941997568514
  H   2.66579364079266     -9.88715292302577      7.21753312672137
