13
Coordinates from ORCA-job orca
  C   -3.73164666240691      1.41987471005210     -0.70847820113206
  C   -3.34051064231701      2.64098160562729     -0.11329512096019
  C   -2.65287824065953      2.33302381207532      1.08419029499749
  H   -3.53654648391246      3.62770728953657     -0.49842497585194
  C   -2.58899230985309      0.92714369351495      1.20538869434029
  C   -3.26653764118825      0.36765738911818      0.09975121410568
  H   -3.35173046665802     -0.68257075166780     -0.12348964976652
  H   -4.23038235665027      1.31135681749920     -1.65652060658692
  H   -2.19558584691081      3.04435432305890      1.74942143860391
  H   -2.09890313464950      0.37960597816015      1.99312664015764
  Ti  -1.38016182459718      1.55189009487715     -0.68677204490165
  Cl  0.42120398933838      2.66695323708977     -0.00733691963449
  Cl  -1.14684837953555      0.41809180105825     -2.59157076337036
