25
Coordinates from ORCA-job orca
  Cr  -0.00000021516138     -0.72317720629275     -0.63777037070086
  S   2.41849434519878     -0.62119356322358     -0.44740002766576
  S   -2.41849477860319     -0.62119328158903     -0.44740019017540
  C   2.84390424599117     -1.19602915202199      1.23621305583106
  C   2.45126335305726      1.21327687055196     -0.21868821928213
  C   1.24108158785622      1.79131559606808      0.48889596560467
  N   -0.00000016356888      1.50597203451569     -0.24777415703395
  C   -1.24108200328699      1.79131592836386      0.48889569123665
  C   -2.45126370501811      1.21327718851664     -0.21868861184817
  H   2.54763624431145      1.61465362632878     -1.22597568672324
  H   3.36440637314476      1.46533199970606      0.31535689875859
  H   1.39494468045089      2.86585171383210      0.62744820218291
  H   1.14315548583968      1.35636885301436      1.48205252776293
  H   -1.39494499101349      2.86585209852483      0.62744764947879
  H   -1.14315611207873      1.35636941570094      1.48205237441542
  H   -2.54763636629046      1.61465380243947     -1.22597615103042
  H   -3.36440682217462      1.46533246362444      0.31535628043289
  C   -2.84390451091831     -1.19602850238170      1.23621304268458
  H   -0.00000001774327      2.04598634527412     -1.10798086821570
  H   -2.14490149021367     -0.82938688063083      1.97983585372455
  H   -2.80552827167092     -2.27967246212984      1.21136281725206
  H   -3.85420863384966     -0.87870865757438      1.47458918103090
  H   2.80552811089601     -2.27967310912684      1.21136250130186
  H   2.14490128656755     -0.82938781258319      1.97983606674947
  H   3.85420836827795     -0.87870930890759      1.47458917422814
