31
Coordinates from ORCA-job orca
  C   -1.46436951580856      0.44603575150312     -0.06276334457721
  C   -0.40396898346729      1.36357914998243     -0.24099282500900
  C   0.81296345358263      0.64446376763143     -0.24740957960477
  C   -0.53973868951887      2.83379469546237     -0.35243007424112
  C   0.51464999954008     -0.74611564206258     -0.04860939271731
  C   -0.90493195364556     -0.87168983261175      0.06723105301561
  C   -1.65390520388767     -2.11252139241596      0.38845242712389
  C   -2.88778166002034      0.82108016889313      0.10413445421616
  C   2.16027163322423      1.25864937381036     -0.30279577682186
  C   1.51072316625138     -1.83046841102980      0.14347080936263
  W   -0.41065944622460     -0.32324486184123     -2.09444781163777
  Cl  -0.67524077025833      1.66424714621685     -3.35464440694276
  Cl  -2.70329780335737     -0.72898781406282     -2.63389643152337
  O   -0.27990899658758     -2.15706880683320     -2.66480526418866
  Cl  1.83647657399118     -0.32015919329645     -3.01895647240666
  H   -1.48616155468996      3.11575553150989     -0.80188739219387
  H   0.25340640737522      3.26492958473300     -0.95435929137709
  H   -0.49101777540517      3.28260730691231      0.64194736351225
  H   2.22169504719765      2.02127709579296     -1.07358042494869
  H   2.93095826605027      0.52500615654512     -0.50509037213772
  H   2.37909107383309      1.73071823981722      0.65721936525625
  H   2.37832921061829     -1.69114535183013     -0.49441425385770
  H   1.08478944108487     -2.80322024213362     -0.08160606608904
  H   1.85017446936488     -1.84628607560267      1.18043522831968
  H   -1.14844638380943     -2.99170019713299      0.00187142273795
  H   -2.64863148550729     -2.09596373913828     -0.04444275453707
  H   -1.74966152948371     -2.22275269726143      1.47013737737384
  H   -3.19545542321255      1.56031205769499     -0.62960028089772
  H   -3.03109083605906      1.25061016599850      1.09780907864171
  H   -3.54561037209559     -0.03327736097323      0.00406518019711
  H   0.62866964092077     -2.37487457420033     -2.92539154405123
