38
Coordinates from ORCA-job orca
  C   2.00727950103306     -1.96414288001801      0.40910301760502
  C   1.98301375793460     -0.69588691949933      1.28154968063187
  C   0.82360725571355     -1.71349277892465     -0.55974630817857
  C   -0.22107374212218     -0.94276977807501      0.24847216802525
  H   0.44685963680777     -2.64833507175600     -0.95974735934341
  H   1.19708827899896     -1.11888807221806     -1.38999982699818
  C   0.50216134881749     -0.41954276917395      1.50918233690286
  H   2.44658843300879      0.10480920526217      0.70735648014304
  H   2.54345102388912     -0.79405310987529      2.20759073811304
  C   0.07494076555209      1.04439799490394      1.60617057213209
  H   0.15435868111578     -0.97014648013518      2.38085600702072
  H   -1.01136518307627     -1.62475415128728      0.54745966633520
  C   -0.88096846180254      0.31250773932894     -0.36993679381075
  C   3.26190105645675     -2.09854103473065     -0.43011582960574
  C   1.71747218961323     -3.19736653980306      1.27230011961178
  O   0.64885927790597     -3.75575454052335      1.27181136346291
  O   4.05541059458123     -1.21619861504448     -0.66222311567394
  O   3.33626080996963     -3.33507875592702     -0.96542178623821
  O   2.65306473098298     -3.63216557601739      2.15230418315714
  C   4.02399790146306     -3.22188362996673      2.12885682852016
  H   4.14864552250379     -2.15241046033779      1.99053812694048
  H   4.56316942573534     -3.75749729728965      1.35037503555674
  H   4.42721314121684     -3.50125705225430      3.09676527148210
  C   4.43388221443437     -3.56297025929568     -1.86636841228715
  H   4.36698910310910     -2.89713307519662     -2.72271495257976
  H   4.34343030924731     -4.59643428641343     -2.17939980206273
  H   5.38320263578087     -3.39752552534177     -1.36290656157925
  O   -1.07008218079100      1.17547656030065      0.77452366456465
  H   0.88149204328402      1.71009570938691      1.27387365040824
  H   -0.21612825807043      1.34957827808702      2.60907082587188
  C   -2.25670269698087      0.02333898296940     -0.93205137268402
  C   -0.02719743788694      1.03640857424236     -1.40401247314808
  H   0.99431782997782      1.20000629451590     -1.06603110829955
  H   -0.47225675850152      2.00773507979487     -1.60836799905109
  H   0.01832510392538      0.48617943805978     -2.34240186169897
  H   -2.89743473910751     -0.40158890227210     -0.16245605365578
  H   -2.18892870783863     -0.68607433100572     -1.75567797566674
  H   -2.72495440687875      0.93325803553183     -1.30343014392276
