38
Coordinates from ORCA-job orca
  Ti  -2.80731269900538      3.68121230465599      1.87971780848809
  Cl  -3.71010099526961      3.33045889915653     -0.27864030502908
  C   -4.79527326787164      4.47322036667812      3.01235941442986
  C   -5.16485863137005      3.27644082156171      2.37270006062036
  C   -4.44159666424964      2.22387919122462      2.95764286651097
  H   -5.83861280595450      3.19085318487866      1.54076273404789
  C   -3.62483207938526      2.76500985965805      3.96699046190557
  C   -3.84401269870211      4.15433151113369      4.00571618377445
  H   -3.37081094994948      4.84926041307145      4.67640081171615
  H   -5.16306305032818      5.45525457279962      2.77022905952413
  H   -4.44421180395585      1.20059748742108      2.62752478029828
  H   -2.91427690012333      2.22091800497873      4.56465173370000
  C   -2.21875236849460      5.79842194390583      0.85242710128891
  C   -2.25817111588402      6.01889722293883      2.23175184738601
  C   -1.25297981384605      5.22047828754799      2.83023353440502
  H   -2.95600151607217      6.65066506459420      2.75202901274233
  C   -0.55529794603394      4.56243084534349      1.79890339073762
  C   -1.16131498749744      4.89442704211844      0.58296395317284
  H   -0.91522424701599      4.49837948646570     -0.38559071424359
  H   -2.89839797928140      6.20123735086472      0.12299477597296
  H   -1.03493905724341      5.14817740622967      3.88166717759807
  H   0.24084947641003      3.85241037491450      1.94308021793753
  O   -1.88341145643583      2.09247814703876      1.87486334881994
  C   1.00232558963538      1.55359185273373      2.63660162943165
  C   0.09812292219653      0.70780597927508      1.81250095201371
  C   0.66267169477914      1.81323001313475      4.05540009135216
  C   2.34386918938652      1.90939939835376      2.11483146135343
  C   -0.94378033788173      1.50580253897167      1.02085620917981
  H   -0.44292419876207     -0.00928477863984      2.43577379142511
  H   0.67354460001272      0.12687424307515      1.08529279708162
  H   -0.44076417025080      2.24702634399005      0.39265579626756
  H   -1.48718294875537      0.83842904367091      0.34266718120903
  H   0.98010783281452      0.99128996745469      4.71475031920373
  H   -0.41339402107877      1.91719788774985      4.18799799257530
  H   1.14516240151955      2.71519529038896      4.43547381179184
  H   3.08751307381642      1.12249042119319      2.31302632134783
  H   2.73583016591811      2.82000684207642      2.57060806016693
  H   2.33655176457055      2.05142516756020      1.03256432910376
