34
Coordinates from ORCA-job orca
  P   4.00542837255439      0.34686212943484      0.58178323251265
  C   5.73405676842423     -0.20190140346323      0.89070105501952
  C   6.20267909510959     -0.64675858760633      2.12478007163101
  H   5.53383273696339     -0.68044052666926      2.97307776665964
  C   7.52305381131813     -1.04883878522140      2.27206751009786
  H   7.87407883100915     -1.38996718360300      3.23731576488275
  C   8.38879330606032     -1.02055904009004      1.18835164276157
  H   9.41725445383528     -1.33618861475227      1.30504222848952
  C   7.93025163823468     -0.57909880274660     -0.04604164768113
  H   8.60072144014151     -0.54773542812243     -0.89485465760297
  C   6.61632652995854     -0.16302650167911     -0.19046344867997
  H   6.26722297155375      0.19462357104308     -1.15163426261023
  C   3.32993949228771      0.41747010543492      2.29169852472750
  C   3.54582437456915      1.59315856635848      3.01283954242797
  H   4.07972451254240      2.41364174915967      2.54876610604781
  C   3.08644302001402      1.71851928734387      4.31423862772557
  H   3.26584842372379      2.63417003877126      4.86231115820171
  C   2.38453482644909      0.67745932888758      4.90790325536291
  H   2.01635817910958      0.77792104122987      5.92048287123640
  C   2.15285104914948     -0.48928370351427      4.19392078664954
  H   1.60530233193644     -1.30393849491528      4.64978548101339
  C   2.62590395270812     -0.62179964223063      2.89567193492003
  H   2.44802788294244     -1.53776399678652      2.35023582728997
  C   3.23660841226753     -1.19901365573800     -0.05397482386856
  C   3.85264444378315     -2.44800724949185     -0.01806476190542
  H   4.84390865694839     -2.54530899713284      0.40141952990027
  C   3.20084840221416     -3.56776711455386     -0.51596135971646
  H   3.69201983660547     -4.53161668413981     -0.48380730380669
  C   1.92394835217639     -3.45626233508716     -1.04700038031362
  H   1.41711307515508     -4.33092127896277     -1.43309174151763
  C   1.30167175607657     -2.21527126658595     -1.08619165960911
  H   0.30839660409129     -2.11906754437284     -1.50466606471645
  C   1.95748679535498     -1.09411168583816     -0.60315188642619
  H   1.47431566473102     -0.12557729435874     -0.64939891910423
