51
Coordinates from ORCA-job orca
  Ni  0.37335568841811     -2.81422826224065      1.19245427405486
  N   2.14707729869989     -3.10553172088777      2.26170464892646
  N   0.07771192305028     -4.90635294330487      1.43119021032642
  N   0.49586620794118     -0.69205346099747      1.16173201504387
  N   -0.95911220932625     -2.60176697041664     -0.40542505238713
  C   2.44980968678250     -4.52113141535203      1.96933666132928
  C   1.24203633132588     -5.38832596282842      2.21147082633466
  H   3.29227395106768     -4.87814501874391      2.57305811050467
  H   2.75363679272611     -4.58503097199902      0.92685974197072
  H   1.47392204598244     -6.42868393993809      1.96710872991713
  H   0.97656110509513     -5.37864179783683      3.26408637269245
  C   0.08906278032534     -5.56779500150591      0.10643572171825
  C   -1.15260779929585     -5.23627376328594      2.16630506157908
  C   -0.94597561154873     -5.08440871257503     -0.88835548062880
  H   -0.03639043491090     -6.64845423165596      0.24945887680497
  H   1.08019524933939     -5.41881978596989     -0.31986735876494
  C   -0.75649520973291     -3.67371865886944     -1.40448195139587
  H   -0.87143035334201     -5.74348863331591     -1.75431701189921
  H   -1.95549964071365     -5.24126386561490     -0.51399857035366
  H   -1.42648103851276     -3.50804241573290     -2.25749717379034
  H   0.26230664840421     -3.57226368873334     -1.77639637954436
  C   3.23231738255867     -2.26173024710510      1.71598249099405
  C   2.03498841592520     -2.91585458909790      3.71620365756227
  C   2.96930104250339     -0.77103856748604      1.74413843350105
  H   3.38407381172685     -2.57011562460768      0.68222855921752
  H   4.16455039130865     -2.47423709819591      2.25416165538322
  C   1.87568159042249     -0.27550571054237      0.82064977348519
  H   2.82069880550171     -0.41088631547277      2.76001239126028
  H   3.89059042430189     -0.28809890163611      1.41562313398395
  H   2.08117286141558     -0.63292002801144     -0.18748514450287
  H   1.91508055531456      0.82041234248523      0.78305491467036
  C   -0.41209049753499     -0.25612983996015      0.07408299770310
  C   -0.52702134958664     -1.31620480655597     -0.98996345945869
  H   -1.38722615341702     -0.04818323500148      0.50368466168777
  H   -0.06954839435176      0.68307174867969     -0.36899290887861
  H   0.43849052030861     -1.47719991273932     -1.46423019260999
  H   -1.21965853545397     -0.98486783329640     -1.77241895825288
  H   2.94648626935238     -3.23788881179434      4.23082912601935
  H   1.19461324383565     -3.47610659124064      4.10924720907193
  H   1.86294558356269     -1.87438032631815      3.95128646775300
  H   -1.24423538439055     -6.31380476960750      2.33796192059105
  H   -2.02577003828573     -4.90391526652457      1.62070475376858
  H   -1.14804146822485     -4.72538612143527      3.12417075546106
  C   -2.37804959948247     -2.51937729654803     -0.02629063685413
  H   -3.00244622052834     -2.23852175400825     -0.88097335954967
  H   -2.72644466380396     -3.47194146411319      0.34890438113305
  H   -2.51857653875465     -1.79239139759096      0.76516005072300
  C   0.06073009662151     -0.06372312499962      2.41857171478073
  H   0.06204586243436      1.02876166441918      2.34517331155479
  H   0.71053292780649     -0.34920426926882      3.23516146773123
  H   -0.94244435286085     -0.39969063062117      2.66197855963164
