55
Coordinates from ORCA-job orca
  Ni  0.10154139075530     -2.76118670269017      1.47088277401078
  N   2.05539882160392     -3.10298041717700      2.29809067826547
  N   -0.01191607033438     -4.97275164780060      1.38971758990967
  N   0.45887515591410     -0.57507433955829      1.20357156753424
  N   -1.00381752947025     -2.54921470177781     -0.39173393648847
  C   2.31310937018583     -4.55106940747772      2.12597632085449
  C   1.06499844559485     -5.36927101572972      2.31837348330026
  H   3.08530747758273     -4.89013938548063      2.82266578832885
  H   2.71567285359533     -4.70749289121072      1.12879529856520
  H   1.30402408828289     -6.43272560361967      2.20583755063677
  H   0.68596636038784     -5.23955338404412      3.32800402632459
  C   0.27505049650123     -5.46640004722747      0.02794457337422
  C   -1.26512521369343     -5.57361111014517      1.87354464516322
  C   -0.68585460921288     -4.99126531441089     -1.04310199985122
  H   0.28838146553884     -6.56318060432718      0.04021741719539
  H   1.27821329182803     -5.14557069939467     -0.24741953186259
  C   -0.56905306897129     -3.52943715631877     -1.41405687722449
  H   -0.44799681486796     -5.55424490296712     -1.94645558909595
  H   -1.71272608438820     -5.26320977465805     -0.81184844754271
  H   -1.13176915320363     -3.34988825235360     -2.33794461603522
  H   0.47617579675115     -3.31320824297535     -1.63772105096288
  C   3.10296861749112     -2.35854587834551      1.56132527597801
  C   2.09559323611064     -2.77029999927083      3.73002002108394
  C   2.95015072272588     -0.85410144749368      1.50774244138283
  H   3.10626634375572     -2.74115234523648      0.53997654961815
  H   4.08076515567749     -2.60367249336773      1.99246319493521
  C   1.80866193228203     -0.35048720803973      0.64764845631050
  H   2.92369928480586     -0.41910593838318      2.50393021914604
  H   3.86872143522818     -0.47070728979809      1.06201714641744
  H   1.86630579957523     -0.84599817276411     -0.31961591097984
  H   1.94359594020960      0.72170314421094      0.45918017322088
  C   -0.57160845010499     -0.19432100282193      0.21711422070483
  C   -0.68982276204773     -1.19466687421962     -0.89894760890767
  H   -1.51547007424156     -0.11850839195281      0.74974590422786
  H   -0.36465146239944      0.79754534422162     -0.20054994056894
  H   0.24102368207926     -1.24951335786792     -1.45671916628760
  H   -1.45197971548832     -0.86253629451004     -1.61023751042324
  H   3.10006044143476     -2.91732763083346      4.13816799065524
  H   1.39774279100589     -3.39363034878971      4.27425174347496
  H   1.79662583014823     -1.74376446040624      3.89099466504267
  H   -1.19892159925044     -6.66569810897345      1.87119661885999
  H   -2.10081123302975     -5.28293125267126      1.25147707338143
  H   -1.47150351281576     -5.23407559365834      2.87912883631223
  C   -2.45117207594355     -2.65321322565301     -0.15714539733321
  H   -3.00863155704175     -2.56828686272091     -1.09503606063261
  H   -2.69511409406393     -3.59668889932978      0.31155903738045
  H   -2.77453445238667     -1.86922107254674      0.51693190878060
  C   0.27258932541458      0.27480407117053      2.38922760182656
  H   0.47312929660144      1.32380835968575      2.15127862915095
  H   0.93107027450365     -0.02605811210474      3.19338846833244
  H   -0.74519210023722      0.18770198642709      2.74617662574006
  C   -1.12518107963552     -2.62202895170275      3.07809681222774
  H   -2.16846309937279     -2.70497030490493      2.77019815879124
  H   -0.99986955750721     -1.68575910285491      3.61631251594862
  H   -0.92235975386296     -3.42441668314908      3.78883164180467
