25
Coordinates from ORCA-job orca
  C   -0.20157450724746     -0.33132228173050      0.56444868181774
  C   -1.17001941959501      0.34403212721885      1.34216329227223
  C   -1.39292418155298      1.61577398191686      0.76640861341702
  H   -1.67120996255892     -0.05245101074358      2.20822712907381
  C   -0.57273648052994      1.72268284993657     -0.36918610545938
  C   0.16589351192556      0.51567527195839     -0.49432985955220
  H   0.85995599994995      0.27976105227121     -1.28115625710673
  H   0.16076372793923     -1.33144059330333      0.73449398196016
  H   -2.09485559544357      2.35420133187621      1.11627042110193
  H   -0.53463805488305      2.55833857368386     -1.04495975565363
  C   -3.27079724463588     -1.65667859994848      0.17128481391541
  C   -3.12662826264012     -1.95289483352194     -1.20011346387824
  C   -3.77814641513875     -0.93397045647421     -1.92629730824060
  H   -2.59153346765204     -2.78765530674433     -1.62023889467799
  C   -4.32818260540723     -0.00958692210115     -1.01354754264338
  C   -4.01262300457810     -0.45649902179483      0.28646179232157
  H   -4.26638880563494      0.04256875904983      1.20634257397042
  H   -2.86278650798549     -2.22713420188369      0.98833230119584
  H   -3.83215762669064     -0.86471718649858     -2.99687303663103
  H   -4.86487817578941      0.88898903792778     -1.26675911920603
  V   -2.05018778209379      0.01839595938739     -0.73215311674849
  C   -1.61472858823720      0.50028748643431     -2.80412839673896
  H   -0.70545155366996      1.08103129166858     -2.93848719771426
  H   -2.43590668895567      1.07541564625670     -3.23654458983448
  H   -1.50609830889341     -0.41468295484130     -3.39007895696168
