26
Coordinates from ORCA-job orca
  O   -1.65437848505114      0.21753554592581     -2.53477106500636
  P   -1.22086111640663     -0.43426888071395     -3.97406303029288
  O   -1.25863375228633     -1.92046374609530     -4.08732722750533
  C   0.44452776665806      0.22272426890541     -4.28516060459558
  C   0.75054387492320      1.57076136509310     -4.10424151626667
  H   -0.01212202545003      2.25973122107424     -3.76698978548992
  C   2.03252574798867      2.03146413200896     -4.35662885277032
  H   2.26687463132681      3.07807136588939     -4.21481337671176
  C   3.01540530624553      1.15059525393691     -4.79068556488352
  H   4.01599716097990      1.51258292731094     -4.98758844653905
  C   2.71448762649081     -0.19193306435787     -4.97151308806201
  H   3.47967546437917     -0.87842928790124     -5.30844773039861
  C   1.43168796361749     -0.65727849399636     -4.72187923485599
  H   1.18170661629724     -1.70100727479475     -4.85342136900824
  C   -2.37556094069527      0.43608204315707     -5.05877794354430
  C   -2.89590759359486      1.69412178978698     -4.76156981253362
  H   -2.65337323420981      2.17259409691130     -3.82364090455606
  C   -3.75084319051881      2.31761458451078     -5.65708751265631
  H   -4.16055066352148      3.29036182133048     -5.41988710145552
  C   -4.08650461512188      1.69365684374558     -6.85103540502859
  H   -4.75397898770902      2.18346967597178     -7.54778462214863
  C   -3.57304118719562      0.43848158632706     -7.14692434104674
  H   -3.84262930532503     -0.05368440514682     -8.07166637010910
  C   -2.72035116741035     -0.19159446565570     -6.25411689642964
  H   -2.33192095272913     -1.17843194471689     -6.46644385504252
  H   -1.10242494168151     -0.13366695850610     -1.82428434306205
