60
Coordinates from ORCA-job orca
  C   -0.86283244571114      2.62950869880118     -0.76755045624928
  C   0.40453897852633      2.13549451707424     -0.41270885775218
  C   0.24364025779439      0.82660228735019      0.08527030924361
  H   1.32973633894309      2.68264124644269     -0.43611218138252
  C   -1.13159716462716      0.50731133690770      0.03474467054876
  C   -1.81939564522591      1.62219256521494     -0.48718583041765
  H   -2.88052996943372      1.68290931593831     -0.66369306435995
  H   -1.06502525735229      3.61579119636581     -1.14495984892510
  H   1.04723770507074      0.17719259584074      0.37861963583977
  H   -1.57245916988498     -0.42777338895300      0.32813346515007
  V   -0.88591276267491      2.27481674788732      1.47850850731166
  P   -2.75922552418425      3.81783272011371      1.73821459766630
  Si  0.92342387747442      1.37498185573647      3.02560977564235
  P   -2.37791678355821      1.14894321113286      3.13977076786019
  C   -4.31682510614456      2.87745411808737      2.05130025742855
  C   -4.05166020000101      1.99787053424472      3.25696963621645
  H   -4.53019177879255      2.27820096492893      1.16660083553859
  H   -5.16574831443042      3.54259009913778      2.21301701625456
  H   -4.82523762063950      1.24356887081604      3.39489402135978
  H   -4.03677047766272      2.60321173653414      4.16099939379956
  C   -2.91953310727341     -0.55525283457335      2.69592446574639
  H   -2.06024677336231     -1.21576858856060      2.66138728995959
  H   -3.40868607356086     -0.55169860553056      1.72573963549206
  H   -3.61837090268511     -0.92979194090329      3.44145565140636
  C   -2.03832364190415      0.93679354852086      4.93010594288508
  H   -1.73477807912420      1.88433259511687      5.36209828359178
  H   -1.22790067984170      0.23236270994135      5.07649053472344
  H   -2.93235717050591      0.56884190549173      5.43126850622527
  C   -3.17579206467016      4.96872213593712      0.37620884173780
  H   -3.43091048668297      4.41317092669997     -0.52230935319673
  H   -2.30295266761391      5.58248841122646      0.17119512821246
  H   -4.01111468924917      5.61300185994609      0.64375231645727
  C   -2.68769124632411      4.93559379449304      3.19002962353055
  H   -2.33437224744959      4.39126657641975      4.06007512715885
  H   -3.66221476787035      5.37592513738646      3.39621805274550
  H   -1.96063361181187      5.71368562498820      2.98766828268358
  C   2.67353473010537      1.53935730806857      2.32133164278495
  C   3.29451984949076      2.78522225541866      2.19805629723939
  H   2.79305262925028      3.66759694462724      2.56712223817411
  C   4.54335993865027      2.90729064962288      1.60776699053788
  H   5.00579306555414      3.88318034019975      1.52935912346287
  C   5.20212101362034      1.78581134443653      1.12148192087321
  H   6.17630736803562      1.88221032834072      0.65887796063721
  C   4.60477819474345      0.53976857209371      1.23961064077184
  H   5.11595639942803     -0.34423150224375      0.87921862173215
  C   3.35742595654908      0.42050952610163      1.83747827404037
  H   2.92647422662182     -0.56673254804805      1.94782557342988
  C   0.87471701717946     -0.42235887501866      3.66211111475147
  C   0.48783564776409     -1.46629931641258      2.81759222331006
  H   0.17501140433890     -1.25129086640387      1.80537406753899
  C   0.48987740369043     -2.78925203859784      3.23924687195339
  H   0.18693762092496     -3.57419117152707      2.55744352785285
  C   0.87767029167734     -3.10278266667426      4.53326693828161
  H   0.87753143025699     -4.13152369700221      4.86985212467998
  C   1.27256786470290     -2.08409496272606      5.38970346366752
  H   1.58531556793199     -2.31769944192155      6.39958462519118
  C   1.27673807439963     -0.76613756635626      4.95603499960256
  H   1.58936894733514      0.01414888376396      5.63655889901496
  Cl  1.00144739514176      2.52446912493861      4.83647616987370
  Cl  0.23820723506973      4.32369488915684      1.88350471046404
