68
Coordinates from ORCA-job orca
  C   -0.99194130447575      1.13282196660365     -0.01168507686961
  C   0.50319591633181      0.74133351082516      0.15028991087834
  C   1.10277280532587      0.51352853993289      1.38977259762274
  H   0.54621601176617      0.66719632464466      2.29836246077237
  C   2.41651388391965      0.07613685661256      1.49392103968057
  H   2.84269080241229     -0.07969968485973      2.47633809654256
  C   3.16996231382019     -0.17135369321047      0.35939386884580
  H   4.19402641383778     -0.51148266054366      0.43925305562454
  C   2.56862670598784     -0.02136042143404     -0.88179226745557
  H   3.11437951031190     -0.26168991672740     -1.78485557676729
  C   1.25449334559538      0.40053908824107     -0.97775772621807
  H   0.79592528566864      0.42606998361203     -1.95103109134042
  C   -1.70742164860818      1.27159697379571      1.35044945259713
  C   -1.23150725872525      2.11918753997879      2.35181370535979
  H   -0.31434666106270      2.66279694641417      2.21487591674224
  C   -1.93270940565101      2.32446712381822      3.53052403871348
  H   -1.52326269054266      2.99106278832256      4.27835028021872
  C   -3.14654432007929      1.69398919677070      3.74521613905252
  H   -3.69969071903579      1.85843170988436      4.66076187216989
  C   -3.64738170710421      0.86254443817316      2.75643771462643
  H   -4.60613569990004      0.37789158258149      2.88431942338430
  C   -2.93758763462345      0.65676963657463      1.58567051259102
  H   -3.37701559370120      0.03276263868904      0.82584199903800
  C   -1.49541581031387     -0.13839872666541     -0.74355822761829
  C   -1.50972701438039     -1.32888633521804     -0.00603370682225
  H   -1.25604014558106     -1.30415635180471      1.04330613250293
  C   -1.82431681224686     -2.54389341668721     -0.58418788674520
  H   -1.83001966792620     -3.43715048717255      0.02650739460488
  C   -2.11422408392802     -2.62124686433361     -1.94023998327647
  H   -2.35545090265528     -3.57111285984951     -2.39904776497441
  C   -2.06195729637630     -1.46462206571918     -2.69583816510311
  H   -2.25848089158387     -1.49731228886809     -3.75953589936047
  C   -1.74990828503835     -0.24498510492389     -2.10545432729174
  H   -1.68675266912334      0.61727814019969     -2.74315428391502
  C   -1.33576381619523      2.58188667911935     -0.78501717682695
  C   -0.54637505240476      3.80922951867760     -0.25992042797754
  C   -1.00972737238273      5.07303309165922     -0.64644299136706
  H   -1.92618738679574      5.15041675696796     -1.21228181942864
  C   -0.32028246939296      6.23052426264145     -0.33887140544925
  H   -0.72033995041359      7.18604398041244     -0.65165949909975
  C   0.88352954884391      6.16766614174328      0.35077447064209
  H   1.43005151859757      7.07067068351439      0.58914867075849
  C   1.38171827474757      4.92669771667230      0.70196960637600
  H   2.32965751553299      4.84428233720633      1.21748656209752
  C   0.67940790787599      3.76704014170046      0.39340714154820
  H   1.12814606467788      2.82667748951976      0.65559477990034
  C   -2.84641679495014      2.77960135926721     -0.52634937319457
  C   -3.30116065192161      3.64710924430015      0.46744618551093
  H   -2.59413753820782      4.23011933914240      1.03300881019478
  C   -4.64312465269869      3.75081338675174      0.79177364716916
  H   -4.94406115298370      4.42457817983275      1.58294036987659
  C   -5.58842945460728      2.98724711840782      0.12610255002229
  H   -6.63792760795497      3.06425653198029      0.37880073801783
  C   -5.16094376344333      2.11020278442825     -0.85615555577958
  H   -5.87421540109492      1.48986170792297     -1.38308959778135
  C   -3.81415009783394      2.00706047005114     -1.17029066804575
  H   -3.52842328814676      1.28237205711675     -1.91088673141123
  C   -0.97886673247802      2.69318600771311     -2.29306949596842
  C   0.36201195742241      2.70601583888650     -2.68613417775566
  H   1.13567129836262      2.62322243596794     -1.94263745536322
  C   0.73515959921323      2.87182855231399     -4.00804403295064
  H   1.78593594024808      2.86100102064632     -4.26666323223067
  C   -0.22355355271680      3.08708833713331     -4.98739606408827
  H   0.06493527795625      3.22799178102334     -6.02069021948530
  C   -1.55216475960419      3.16687220929089     -4.60708378454403
  H   -2.31747212445942      3.38325626536475     -5.34093315397185
  C   -1.92076348385634      2.98459908944464     -3.28083857771142
  H   -2.96209257124976      3.08245337552181     -3.02567171949443
