50
Structure: P13 Stoichiometry: C20H25RuP2NO+
   C     2.233404   -3.314857    0.873067
   C     1.356297   -2.215843    0.854432
   C     1.735344   -1.036315    0.152508
   C     3.015579   -0.975674   -0.462316
   C     3.881629   -2.072630   -0.389684
   C     3.492471   -3.252935    0.262760
   C     3.342796    0.292762   -1.220700
   C     2.806697    1.498204   -0.481514
   C     1.541849    1.333976    0.131140
   C     0.938763    2.428637    0.809252
   C     1.584309    3.675993    0.801347
   C     2.831275    3.841376    0.181257
   C     3.444350    2.744725   -0.443765
   H     1.928282   -4.222660    1.407474
   H     4.866260   -2.007320   -0.867884
   H     4.168082   -4.113369    0.302555
   H     4.425424    0.380019   -1.412133
   H     1.115391    4.521272    1.319325
   H     3.326620    4.817608    0.195059
   H     4.421031    2.862475   -0.928118
   N     0.889968    0.089304    0.096231
   Ru   -1.013539    0.020583   -0.762083
   C     0.032026   -2.275560    1.570081
   H    -0.074122   -1.422053    2.267527
   H    -0.074728   -3.217911    2.135649
   C    -0.337764    2.210934    1.580370
   H    -0.197015    1.395571    2.316398
   H    -0.639304    3.124936    2.122583
   P    -1.342955   -2.071105    0.334458
   P    -1.760900    1.632727    0.532411
   C    -2.391905    3.151063   -0.291949
   H    -3.200433    2.877295   -0.989469
   H    -2.767594    3.877329    0.449943
   H    -1.562791    3.591224   -0.868447
   C    -3.075347    1.266530    1.776623
   H    -3.330138    2.170606    2.357672
   H    -3.975039    0.895264    1.259173
   H    -2.711898    0.485303    2.463508
   C    -1.160669   -3.579194   -0.721837
   H    -1.228058   -4.505093   -0.123468
   H    -1.948651   -3.579895   -1.493379
   H    -0.175920   -3.540687   -1.216898
   C    -2.884830   -2.448780    1.281101
   H    -3.751315   -2.364483    0.603956
   H    -2.850561   -3.465466    1.710616
   H    -3.007421   -1.715351    2.093691
   C    -2.600019   -0.049111   -1.728931
   O    -3.603795   -0.095487   -2.335651
   H    -0.560675    1.378238   -1.550520
   H     2.841177    0.246115   -2.214054
