39
Structure: P14 Stoichiometry: C12H21PO2N2Ru+
   C    -2.100649    1.470461    0.574209
   C    -2.301929    0.031222    0.181088
   N    -1.153206   -0.626725   -0.114396
   C    -1.145161   -1.963864   -0.347797
   C    -2.340830   -2.695021   -0.294325
   C    -3.543091   -2.025968   -0.026683
   C    -3.527286   -0.644227    0.208227
   C     0.198686   -2.559860   -0.682776
   P     1.568819   -1.457803   -0.005696
   H    -4.447777   -0.096803    0.431013
   H    -2.325479   -3.773900   -0.473403
   H    -4.486761   -2.580075    0.002421
   C    -1.407565    2.389024   -1.590938
   C    -0.544986    3.321853    0.499748
   H     0.270733   -3.613875   -0.359785
   H    -1.731196    1.453725    1.618936
   H    -3.035480    2.058977    0.489802
   C     3.030969   -1.950659   -1.011109
   C     1.924693   -2.166047    1.663491
   H     3.907668   -1.390252   -0.645087
   H     3.235269   -3.033801   -0.944877
   H     2.847420   -1.659820   -2.058032
   H     2.836359   -1.684811    2.057494
   H     1.082265   -1.882532    2.316171
   H     2.066086   -3.261132    1.645121
   H    -1.379238    4.046666    0.603089
   H    -0.179585    2.999904    1.487655
   H     0.273059    3.783235   -0.073259
   H    -2.233631    3.131520   -1.604926
   H    -0.542611    2.777891   -2.146952
   H    -1.738798    1.455872   -2.070719
   C     2.157075    1.510412   -0.193310
   O     3.169322    2.100213   -0.283425
   Ru    0.593949    0.533661   -0.100154
   H     0.333188   -2.532046   -1.781723
   N    -0.990441    2.096364   -0.203338
   H     0.660071    0.418656   -1.742771
   O     0.150058    0.682876    1.987780
   H     0.973313    0.912424    2.452394
