70
Structure: P17 Stoichiometry: C25H40PdP2NBr+
   C    -5.498113   -0.044949    0.446861
   H    -5.171693   -0.124186    1.491636
   C    -4.558748    0.025681   -0.534740
   H    -4.898368    0.106805   -1.575995
   C    -6.947714   -0.024050    0.258111
   C    -7.804094   -0.101658    1.381041
   C    -7.586335    0.071751   -1.001825
   C    -9.191990   -0.080694    1.202772
   H    -7.380556   -0.177773    2.389048
   C    -8.981651    0.084539   -1.067886
   H    -7.002852    0.136054   -1.925729
   H    -9.857322   -0.140841    2.075472
   H    -9.480039    0.158939   -2.044490
   C    -3.107368    0.009407   -0.372792
   C    -2.284101    0.106062   -1.520122
   C    -2.459392   -0.097168    0.882663
   C    -0.887337    0.099218   -1.422491
   H    -2.758720    0.189978   -2.505893
   C    -1.065202   -0.101872    0.978017
   H    -3.056517   -0.177884    1.797792
   C    -0.241637   -0.002810   -0.170274
   H    -0.290426    0.177508   -2.338869
   H    -0.604188   -0.184562    1.969584
   N    -9.792239    0.010581    0.004633
   Pd    1.758498   -0.000340   -0.017781
   Br    4.295745    0.007035    0.180121
   P     1.785961    2.330826    0.034224
   P     1.802240   -2.331061   -0.052581
   C     2.711633    2.908840   -1.472218
   C     2.575732    4.366324   -1.929999
   H     2.371432    2.228322   -2.273842
   H     3.761187    2.624959   -1.273058
   H     3.188286    4.528972   -2.834773
   H     1.532146    4.612538   -2.190923
   H     2.914983    5.081842   -1.164252
   C     0.129704    3.176425    0.015166
   C     0.036656    4.634980    0.482107
   H    -0.519068    2.537237    0.639842
   H    -0.253688    3.054710   -1.014860
   H    -1.011579    4.978067    0.421883
   H     0.356580    4.740213    1.532888
   H     0.648285    5.317382   -0.129427
   C     2.683659    2.946064    1.542387
   C     3.400301    4.300964    1.479455
   H     3.414762    2.145111    1.750740
   H     1.936472    2.920273    2.358247
   H     3.889688    4.505149    2.448488
   H     4.190115    4.292703    0.709613
   H     2.716631    5.138529    1.265785
   C     2.474513   -2.887228    1.590187
   C     2.279289   -4.341470    2.036596
   H     2.002920   -2.202506    2.318433
   H     3.540018   -2.594516    1.560621
   H     2.741840   -4.489506    3.028769
   H     1.209550   -4.595371    2.131464
   H     2.741596   -5.060682    1.342083
   C     2.935447   -2.954488   -1.388838
   C     3.635139   -4.306589   -1.199546
   H     3.688942   -2.152457   -1.481425
   H     2.331260   -2.937326   -2.315829
   H     4.275207   -4.516720   -2.074977
   H     4.290055   -4.289789   -0.312227
   H     2.927610   -5.144771   -1.092330
   C     0.168128   -3.184774   -0.293908
   C     0.155371   -4.651021   -0.745082
   H    -0.368681   -2.558141   -1.027992
   H    -0.380924   -3.047726    0.656085
   H    -0.888055   -4.997960   -0.850258
   H     0.642008   -4.772160   -1.727909
   H     0.660424   -5.320479   -0.030673
