70
Structure: P18 Stoichiometry: C25H40PdINP2+
   C     5.738084    0.041184    0.453968
   H     5.409367    0.118040    1.498203
   C     4.801131   -0.027456   -0.529849
   H     5.142905   -0.106338   -1.570524
   C     7.188275    0.021053    0.268380
   C     8.041894    0.095802    1.393480
   C     7.829417   -0.071132   -0.990449
   C     9.430238    0.075652    1.218198
   H     7.616088    0.169060    2.400730
   C     9.224906   -0.083399   -1.053506
   H     7.247960   -0.132959   -1.915790
   H    10.093706    0.133560    2.092434
   H     9.725533   -0.154955   -2.029150
   C     3.349178   -0.011506   -0.370856
   C     2.528751   -0.105775   -1.520344
   C     2.698552    0.092748    0.883352
   C     1.131632   -0.098525   -1.426048
   H     3.005495   -0.187859   -2.505188
   C     1.303997    0.097620    0.975727
   H     3.293528    0.171562    1.800000
   C     0.484682    0.001297   -0.174987
   H     0.536781   -0.173973   -2.343956
   H     0.840687    0.178093    1.966342
   N    10.032927   -0.012186    0.021086
   Pd   -1.522318    0.001071   -0.031254
   P    -1.515945   -2.337442    0.025193
   P    -1.526474    2.339439   -0.068842
   C    -2.425800   -2.949165   -1.479697
   C    -2.225141   -4.394878   -1.949973
   H    -2.124377   -2.246459   -2.277670
   H    -3.487546   -2.720003   -1.275849
   H    -2.829768   -4.574662   -2.856781
   H    -1.171967   -4.594260   -2.212030
   H    -2.535394   -5.130714   -1.191158
   C     0.160437   -3.146382    0.000115
   C     0.286301   -4.604485    0.460916
   H     0.795782   -2.497527    0.628064
   H     0.541588   -3.011941   -1.028956
   H     1.342769   -4.921292    0.400545
   H    -0.031590   -4.722499    1.510934
   H    -0.307159   -5.299275   -0.154163
   C    -2.373174   -2.993682    1.542190
   C    -3.080047   -4.352309    1.457008
   H    -3.105230   -2.208604    1.799131
   H    -1.603548   -2.986637    2.337300
   H    -3.551112   -4.584948    2.428628
   H    -3.882620   -4.331145    0.700706
   H    -2.392554   -5.177781    1.210989
   C    -2.219608    2.924576    1.557182
   C    -1.962129    4.364344    2.018137
   H    -1.807206    2.212171    2.294659
   H    -3.298374    2.691185    1.499281
   H    -2.439863    4.527566    3.000641
   H    -0.883904    4.565390    2.139391
   H    -2.373793    5.109727    1.319255
   C    -2.590072    3.012483   -1.440804
   C    -3.279061    4.368118   -1.239751
   H    -3.350462    2.228546   -1.600495
   H    -1.941420    3.016870   -2.337350
   H    -3.883057    4.611133   -2.132051
   H    -3.966531    4.335915   -0.377832
   H    -2.564388    5.192302   -1.083453
   C     0.135452    3.153652   -0.266261
   C     0.194320    4.620434   -0.712305
   H     0.675680    2.518019   -0.989651
   H     0.658380    3.001555    0.695917
   H     1.248527    4.940265   -0.792911
   H    -0.266266    4.756839   -1.705588
   H    -0.308966    5.301088   -0.007610
   I    -4.242802   -0.003596    0.154092
