68
Structure: P19 Stoichiometry: C25H38PdP2NBr+
   C    -7.920823    0.112030   -1.202216
   C    -7.179262   -0.000001    0.000000
   C    -7.920823   -0.112032    1.202216
   C    -9.317656   -0.106244    1.140422
   N   -10.022047    0.000000    0.000000
   C    -9.317656    0.106243   -1.140422
   C    -5.757438   -0.000001    0.000000
   C    -4.528326   -0.000001    0.000000
   C    -3.105665   -0.000001    0.000000
   C    -2.376852   -0.119339    1.210736
   C    -0.978468   -0.117561    1.203670
   C    -0.244251   -0.000001    0.000000
   C    -0.978468    0.117559   -1.203670
   C    -2.376852    0.119338   -1.210737
   H    -9.904475   -0.192379    2.065455
   H    -7.402461   -0.201360    2.161373
   H    -9.904476    0.192378   -2.065454
   H    -7.402461    0.201358   -2.161373
   H    -2.925814   -0.213624    2.153541
   H    -2.925814    0.213622   -2.153542
   H    -0.445965   -0.211454    2.157512
   H    -0.445965    0.211453   -2.157513
   Pd    1.761721    0.000000    0.000000
   Br    4.305071    0.000001    0.000000
   P     1.797818   -2.331691   -0.049350
   P     1.797817    2.331691    0.049349
   C     2.574753    2.897210   -1.543363
   C     2.399934    4.351856   -1.996887
   H     2.156762    2.212462   -2.303553
   H     3.637851    2.611034   -1.444197
   H     2.923142    4.505554   -2.957545
   H     1.336801    4.599891   -2.158039
   H     2.813511    5.071358   -1.272578
   C     0.148006    3.178420    0.186967
   C     0.100419    4.642854    0.641958
   H    -0.432979    2.547535    0.882835
   H    -0.338109    3.043330   -0.796966
   H    -0.949077    4.984972    0.681472
   H     0.522775    4.761921    1.654274
   H     0.647214    5.317116   -0.036275
   C     2.837029    2.953504    1.460562
   C     3.545758    4.306702    1.319685
   H     3.583545    2.152305    1.603011
   H     2.171364    2.934656    2.344371
   H     4.126026    4.516701    2.235840
   H     4.257987    4.291754    0.477644
   H     2.845631    5.143928    1.166500
   C     2.837031   -2.953503   -1.460562
   C     3.545762   -4.306701   -1.319685
   H     3.583547   -2.152304   -1.603010
   H     2.171367   -2.934655   -2.344371
   H     4.126030   -4.516699   -2.235839
   H     4.257991   -4.291753   -0.477644
   H     2.845635   -5.143927   -1.166500
   C     2.574755   -2.897210    1.543363
   C     2.399936   -4.351855    1.996887
   H     2.156763   -2.212461    2.303553
   H     3.637852   -2.611033    1.444198
   H     2.923144   -4.505553    2.957545
   H     1.336803   -4.599891    2.158038
   H     2.813514   -5.071357    1.272578
   C     0.148008   -3.178421   -0.186968
   C     0.100422   -4.642855   -0.641959
   H    -0.432977   -2.547536   -0.882836
   H    -0.338107   -3.043331    0.796965
   H    -0.949073   -4.984974   -0.681473
   H     0.522780   -4.761922   -1.654275
   H     0.647217   -5.317116    0.036274
