68
Structure: P20 Stoichiometry: C25H38PdINP2+
   C    -8.142132   -0.000002    1.219531
   C    -7.422416   -0.000002   -0.000979
   C    -8.185012    0.000000   -1.195069
   C    -9.580590    0.000001   -1.108109
   N   -10.264296    0.000001    0.049651
   C    -9.539855   -0.000001    1.182386
   C    -6.000650   -0.000003   -0.025320
   C    -4.771788   -0.000003   -0.044057
   C    -3.349086   -0.000004   -0.060355
   C    -2.632532   -0.000002   -1.284227
   C    -1.233825   -0.000002   -1.290621
   C    -0.489378   -0.000002   -0.087526
   C    -1.210251   -0.000004    1.128460
   C    -2.608545   -0.000005    1.148967
   H   -10.183934    0.000003   -2.026463
   H    -7.683857    0.000001   -2.167423
   H   -10.110106   -0.000002    2.121663
   H    -7.606630   -0.000004    2.173416
   H    -3.190508   -0.000002   -2.226413
   H    -3.148281   -0.000006    2.101727
   H    -0.709772   -0.000001   -2.253628
   H    -0.669055   -0.000005    2.082165
   Pd    1.523175    0.000000   -0.092800
   P     1.523614    2.338729   -0.032748
   P     1.523618   -2.338729   -0.032750
   C     2.268713   -2.859469    1.592153
   C     2.025951   -4.279744    2.116783
   H     1.878376   -2.118637    2.313406
   H     3.345004   -2.629521    1.491479
   H     2.531368   -4.403886    3.091097
   H     0.951800   -4.475647    2.276000
   H     2.418873   -5.052005    1.436639
   C    -0.145535   -3.155068   -0.139194
   C    -0.222198   -4.638596   -0.523311
   H    -0.709900   -2.548778   -0.869044
   H    -0.634797   -2.961720    0.833324
   H    -1.279287   -4.957076   -0.557555
   H     0.206363   -4.816631   -1.524319
   H     0.301298   -5.292369    0.192018
   C     2.536852   -3.070849   -1.412464
   C     3.234506   -4.416499   -1.177439
   H     3.289458   -2.294813   -1.635383
   H     1.855151   -3.114885   -2.283034
   H     3.805561   -4.698567   -2.079851
   H     3.953075   -4.346684   -0.343574
   H     2.526919   -5.232680   -0.959067
   C     2.268715    2.859472    1.592151
   C     2.025954    4.279746    2.116781
   H     3.345006    2.629525    1.491472
   H     1.878383    2.118639    2.313406
   H     2.531374    4.403890    3.091092
   H     2.418872    5.052007    1.436635
   H     0.951803    4.475648    2.276002
   C     2.536840    3.070850   -1.412467
   C     3.234492    4.416501   -1.177448
   H     1.855135    3.114883   -2.283035
   H     3.289447    2.294816   -1.635389
   H     3.805543    4.698569   -2.079862
   H     2.526904    5.232681   -0.959074
   H     3.953065    4.346689   -0.343585
   C    -0.145542    3.155065   -0.139185
   C    -0.222209    4.638593   -0.523304
   H    -0.634797    2.961718    0.833337
   H    -0.709910    2.548774   -0.869030
   H    -1.279298    4.957072   -0.557541
   H     0.301292    5.292367    0.192021
   H     0.206347    4.816626   -1.524314
   I     4.247480    0.000003   -0.012121
