53
Structure: P23 Stoichiometry: C21H29NWO+
   C    -2.422595    0.929151    0.311165
   C    -1.274755    1.722501    0.647168
   C    -0.520137    1.005218    1.667427
   C    -1.184533   -0.223108    1.923185
   C    -2.333456   -0.313366    1.037176
   W    -0.523196   -0.239471   -0.439253
   N    -1.307667   -0.337070   -2.063918
   O    -2.003802   -0.303288   -3.051558
   C     2.291289   -1.608967   -0.126360
   C     0.934809   -1.892338   -0.807631
   C    -0.253316   -2.411322   -0.163342
   H    -0.201106   -2.711975    0.891659
   H    -0.929562   -3.044078   -0.753004
   H     1.038056   -2.117771   -1.879015
   C     2.270077   -2.019611    1.359885
   H     1.476054   -1.478542    1.899281
   H     2.079563   -3.101949    1.453623
   H     3.231015   -1.794040    1.852878
   C     3.418330   -2.380245   -0.853567
   H     3.462162   -2.090564   -1.917722
   H     4.406867   -2.180064   -0.401514
   H     3.223443   -3.465841   -0.798486
   C     0.686462    1.545280    2.383011
   H     0.384264    2.264622    3.168277
   H     1.264108    0.741621    2.866418
   H     1.363891    2.071806    1.691602
   C    -0.892675   -1.194377    3.030494
   H     0.091745   -1.012497    3.489307
   H    -1.655321   -1.085874    3.824989
   H    -0.927777   -2.243260    2.690867
   C    -3.366613   -1.405863    1.059466
   H    -2.902858   -2.389103    1.241263
   H    -4.115195   -1.231225    1.857209
   H    -3.903953   -1.462703    0.099163
   C    -3.541403    1.336046   -0.605184
   H    -3.934095    0.477623   -1.172571
   H    -4.374278    1.769321   -0.019329
   H    -3.209262    2.091863   -1.334125
   C    -1.044251    3.151741    0.233138
   H    -1.302164    3.318116   -0.826112
   H    -1.668376    3.835699    0.840672
   H     0.006510    3.445942    0.379282
   C     2.562916   -0.093525   -0.221005
   C     1.658451    0.735669   -0.933822
   C     3.658576    0.527623    0.406713
   C     1.895179    2.118095   -1.088380
   H     0.966486    0.249281   -1.694399
   C     3.876674    1.907658    0.283662
   H     4.362948   -0.074243    0.990712
   C     3.001812    2.708345   -0.471846
   H     1.207045    2.712950   -1.695897
   H     4.745848    2.362351    0.771253
   H     3.189489    3.781548   -0.579802
