33
Structure: P26 Stoichiometry: C7H22OsP2O+
   Os    0.013873   -0.002533    0.046404
   H    -1.367450   -4.122864    1.414393
   H    -0.993673   -3.531872    1.115448
   P     2.337245   -0.279283   -0.048460
   P    -2.317773   -0.205467   -0.071214
   C    -3.270862    1.285731   -0.607845
   H    -4.356983    1.089503   -0.650970
   H    -3.069214    2.110552    0.095664
   H    -2.910458    1.591833   -1.604034
   C    -2.917520   -1.497294   -1.247600
   H    -2.509703   -2.471673   -0.934692
   H    -4.020980   -1.539096   -1.276595
   H    -2.528442   -1.266910   -2.252975
   C    -3.189618   -0.676321    1.495907
   H    -3.003793    0.097871    2.259524
   H    -4.278353   -0.778044    1.338274
   H    -2.780354   -1.633873    1.857911
   C     2.905117   -1.457779   -1.353183
   H     4.004916   -1.560819   -1.356162
   H     2.432467   -2.435724   -1.168358
   H     2.564664   -1.089730   -2.334978
   C     3.375020    1.212886   -0.390183
   H     3.197550    1.960527    0.400700
   H     4.451125    0.968173   -0.436174
   H     3.053722    1.650384   -1.350059
   C     3.143284   -0.972064    1.470479
   H     2.676408   -1.942920    1.705964
   H     4.230132   -1.109290    1.327469
   H     2.972513   -0.285910    2.317374
   C     0.032718    1.902170    0.159589
   O     0.048264    3.072774    0.266756
   H     0.011010   -1.746730    0.042199
   H     0.023505    0.144246   -1.538576
