53
Structure: P29 Stoichiometry: C17H30NO2P2Ir+
   C     4.074682   -1.113001   -0.031868
   C     2.676013   -1.049826   -0.126497
   N     2.041380    0.158649   -0.185365
   C     2.759283    1.318797   -0.153967
   C     4.153924    1.298121   -0.027905
   C     4.821267    0.068188    0.029804
   C     1.817452   -2.288781   -0.117286
   P     0.150634   -1.950992   -0.876766
   Ir   -0.117704    0.231059   -0.227901
   P     0.220632    2.420980    0.288948
   C     1.982650    2.605167   -0.321492
   C    -2.180534    0.238994   -0.203500
   C    -2.948609   -0.092889   -1.348752
   C    -4.351065   -0.143618   -1.321893
   C    -5.052560    0.151710   -0.143018
   C    -4.324349    0.500068    1.003862
   C    -2.920047    0.539117    0.970622
   O     0.831922   -3.410259    2.693457
   O    -1.378356   -1.813337    2.731662
   H     4.563580   -2.090532    0.010843
   H     4.706955    2.241325    0.005305
   H     5.911662    0.032006    0.118811
   C     0.364284   -2.290213   -2.675324
   C    -0.933165   -3.313706   -0.299650
   H     2.521037    3.462561    0.119023
   H     1.870528    2.796221   -1.407205
   H     1.573934   -2.576846    0.935195
   H     2.347765   -3.143123   -0.574609
   C    -0.697133    3.766960   -0.561100
   C     0.277034    2.968871    2.047515
   H    -2.427898   -0.307076   -2.289818
   H    -4.901037   -0.410113   -2.233189
   H    -6.147431    0.115249   -0.120015
   H    -4.851135    0.741088    1.935801
   H    -2.379711    0.800269    1.889217
   H    -0.913698   -1.121681    2.170740
   H    -2.272392   -1.834476    2.343995
   H    -0.057622   -2.967264    2.750678
   H     1.350447   -2.916613    3.353557
   H    -0.170318    0.708843   -1.834249
   H    -0.102529   -0.188093    1.422612
   H     0.639586    4.006675    2.154134
   H    -0.739607    2.887398    2.467790
   H     0.932222    2.276883    2.601154
   H    -0.287355    4.767020   -0.335488
   H    -0.666936    3.571554   -1.644839
   H    -1.748935    3.713303   -0.233167
   H    -0.507551   -4.306131   -0.524834
   H    -1.072559   -3.192400    0.784608
   H    -1.909858   -3.198055   -0.799235
   H     0.680722   -3.331643   -2.863155
   H    -0.594142   -2.096181   -3.185382
   H     1.113514   -1.587013   -3.073322
