33

C          0.04179        3.03567        0.28908
N          0.08465        1.68699        0.26976
N          1.18920        1.28343        0.95528
C          1.84289        2.38223        1.40753
C          1.14601        3.52267        1.00627
B          1.66093       -0.21217        1.09009
N          0.48082       -1.05188        1.63952
N         -0.76535       -0.97282        1.11251
C         -1.54549       -1.83411        1.79170
C         -0.78745       -2.49420        2.77736
C          0.49513       -1.96235        2.64632
Pt        -1.15751        0.35507       -0.53575
N          2.16090       -0.76877       -0.25420
N          1.32217       -1.22859       -1.22131
C          2.10523       -1.54947       -2.25967
C          3.47059       -1.30183       -1.97684
C          3.45950       -0.80239       -0.67913
H          1.65789       -1.95384       -3.17072
H          4.26861       -0.47467       -0.02601
H          4.33656       -1.47180       -2.61641
H          2.56852       -0.21655        1.89446
H          1.41593       -2.16092        3.19328
H          2.76245        2.26701        1.97934
H         -1.12681       -3.24288        3.49152
H          1.40023        4.56204        1.20686
H         -2.60449       -1.92271        1.54737
H         -0.77570        3.55741       -0.20507
H         -1.24826       -1.15586       -1.49150
H         -1.43473        1.36325       -1.71876
C         -2.33636       -1.01442       -1.35159
H         -2.74915       -1.88766       -0.82563
H         -2.71796       -0.11939       -0.69619
H         -2.82493       -0.83535       -2.31827
