37
Structure: P6/R7 Stoichiometry: C10H20FeP2O2N2+
   Fe   -0.349696   -0.507952   -0.226251
   P     1.164825   -1.411166   -1.508936
   P    -1.739418    0.577585   -1.566452
   N     0.820364   -1.015066    1.239388
   N    -1.215013    0.541814    1.190996
   H     0.938504   -0.852203    3.368640
   H    -1.389478    0.446430    3.316255
   H    -0.491081   -1.707151    2.688802
   C     0.188912   -0.846638    2.555701
   H     0.056468    1.308936    2.719041
   C    -0.626494    0.456035    2.511255
   H     2.688205   -1.572710    1.961490
   H    -2.745870    1.872632    1.731934
   C     2.045415   -1.383931    1.084184
   C    -2.259916    1.331260    0.901658
   H     3.120781   -2.547593   -0.376249
   C     2.599596   -1.574702   -0.298299
   H     3.340478   -0.786931   -0.520140
   H    -1.120373    1.455000   -2.505222
   H    -2.627897   -0.082023   -2.469483
   H     1.731627   -0.716229   -2.601084
   H     1.163291   -2.731157   -2.067589
   C    -1.446373   -1.856105   -0.067456
   O    -2.176280   -2.764649    0.017373
   O     0.986925    0.872659   -0.744460
   C     1.435599    1.906009    0.096710
   C     2.925759    2.161575   -0.186854
   C     0.608530    3.181452   -0.128706
   H     1.347643    1.623418    1.171352
   H     3.538167    1.280519    0.076742
   H     3.066893    2.368494   -1.263090
   H     3.307303    3.024122    0.389778
   H    -0.464349    2.970152    0.006952
   H     0.903857    3.989518    0.567281
   H     0.756412    3.540938   -1.163677
   C    -2.727363    1.486737   -0.396879
   H    -3.594188    2.104838   -0.642283
