67
Structure: P9 Stoichiometry: C29H33FeN3O+
   Fe    1.283662    0.170943   -0.208804
   O    -0.729201   -0.556799   -2.164434
   N    -1.384287    2.045768   -0.811974
   N     1.197675   -0.475310    2.638334
   C     2.970730   -1.205317    0.106713
   C     3.373008    0.160525    0.382593
   C     3.181386    0.918033   -0.816187
   C     3.579234    2.348214   -1.041636
   H     3.583915    2.923330   -0.101769
   H     2.898009    2.851377   -1.746933
   H     4.601423    2.394894   -1.462269
   C     2.618085    0.042150   -1.817021
   C     2.342647    0.396807   -3.250370
   H     3.231982    0.189479   -3.876360
   H     2.095060    1.465112   -3.357247
   H     1.500586   -0.185821   -3.656095
   C     2.533360   -1.286866   -1.247841
   C     2.149214   -2.519796   -2.016208
   H     1.195090   -2.388997   -2.553636
   H     2.050614   -3.392761   -1.353164
   H     2.926722   -2.755419   -2.767303
   C     3.963804    0.639513    1.674817
   H     4.968987    0.203786    1.830717
   H     3.300796    0.334954    2.504099
   H     4.067987    1.736996    1.685806
   C     3.125385   -2.341463    1.070511
   H     2.513424   -3.210107    0.779800
   H     2.820099   -2.021259    2.079448
   H     4.184036   -2.662285    1.103728
   C    -0.075959   -0.192094   -1.268193
   C    -2.530348    2.697102   -0.996641
   H    -3.239331    2.236686   -1.698381
   C    -2.852466    3.900225   -0.340762
   H    -3.811053    4.394942   -0.527011
   C    -1.911337    4.442615    0.545621
   H    -2.118445    5.376830    1.078549
   C    -0.698671    3.773471    0.730398
   H     0.064924    4.169319    1.407838
   C    -0.459443    2.555384    0.039860
   C     0.786973    1.828571    0.229659
   H     1.534187    2.442602    0.768533
   C     0.518640   -0.530248    1.489837
   C     0.385860   -0.957805    3.641923
   H     0.728290   -1.023520    4.676910
   C    -0.837745   -1.315155    3.122294
   H    -1.741777   -1.739017    3.558090
   N    -0.755476   -1.040821    1.758006
   C    -1.847025   -1.247660    0.856748
   C    -1.850977   -2.395533    0.036623
   C    -2.918432   -2.572309   -0.854190
   H    -2.919223   -3.449430   -1.512289
   C    -3.975936   -1.648430   -0.931416
   C    -5.081522   -1.825748   -1.947185
   H    -4.766321   -1.440688   -2.935839
   H    -5.993414   -1.279380   -1.652481
   H    -5.341684   -2.890260   -2.079511
   C    -3.965507   -0.546628   -0.059801
   H    -4.796605    0.168926   -0.087977
   C    -2.917589   -0.329875    0.850316
   C    -2.952622    0.823012    1.823710
   H    -3.267999    0.478691    2.826155
   H    -3.662705    1.597683    1.493264
   H    -1.956318    1.277043    1.944225
   C    -0.713341   -3.380427    0.122853
   H    -0.652484   -3.826950    1.131880
   H     0.245979   -2.866849   -0.052665
   H    -0.828171   -4.189107   -0.616450
