54
Structure: R11 Stoichiometry: C24H25NbN3F+
   C    -1.480751    3.821105   -1.641722
   H    -1.054483    4.454020   -2.435819
   H    -1.653620    4.463378   -0.758311
   H    -2.463388    3.440119   -1.968625
   C    -0.547608    2.679672   -1.312387
   C     0.814041    2.747894   -1.620821
   H     1.149798    3.621805   -2.185251
   C     1.836082    1.861394   -1.181704
   C     3.260046    2.249038   -1.539968
   H     3.867129    2.394381   -0.629496
   H     3.273220    3.177648   -2.129644
   H     3.755841    1.452548   -2.121489
   C     2.789582    0.123688    0.129667
   C     3.529547   -0.825763   -0.601279
   C     4.639224   -1.455683   -0.019968
   H     5.201574   -2.196532   -0.598516
   C     5.028395   -1.143122    1.290033
   H     5.893416   -1.639096    1.742051
   C     4.301074   -0.185828    2.015792
   H     4.600907    0.073313    3.037068
   C     3.191343    0.444272    1.441418
   C    -2.211117    1.320366   -0.029852
   C    -2.776363    0.017876   -0.218363
   C    -3.791147   -0.436897    0.659225
   H    -4.197795   -1.441764    0.515206
   C    -4.280436    0.393584    1.661715
   H    -5.068677    0.042450    2.334662
   C    -3.768659    1.710026    1.799766
   H    -4.171234    2.365006    2.580495
   C    -2.746462    2.173681    0.985580
   C     0.229082    0.109611    3.406153
   C     0.420140   -1.860988   -2.016492
   H     1.296953   -1.500545   -2.564896
   C    -0.750932   -2.105064   -2.708994
   H    -0.797225   -1.890399   -3.782100
   C    -1.892353   -2.713596   -2.074572
   H    -2.771287   -3.029334   -2.641253
   C    -1.821239   -2.898799   -0.716154
   C    -0.727934   -2.440348    0.089831
   H    -0.697067   -2.809718    1.119886
   C     0.529832   -2.078458   -0.586579
   H     1.502616   -2.339504   -0.151120
   N     1.630827    0.764496   -0.425152
   N    -1.030419    1.561855   -0.740687
   N     0.041226   -0.092608    2.007962
   Nb   -0.266225   -0.126696    0.250481
   H    -0.273629   -0.686567    3.991774
   H     1.307063    0.078447    3.668431
   H    -0.176204    1.084957    3.745639
   H     2.615222    1.189330    1.996576
   H     3.231952   -1.067226   -1.625495
   H    -2.556616   -0.544810   -1.134478
   H    -2.318475    3.169215    1.131844
   F    -2.856945   -3.483193   -0.062630
