50
Structure: R13 Stoichiometry: C20H25ORuNP2+
   C    -4.056788   -0.340323   -0.361332
   C    -2.751814   -0.231625   -0.815448
   C    -2.026449    0.985079   -0.550115
   C    -2.646732    2.042960    0.222340
   C    -3.999034    1.877991    0.659338
   C    -4.684380    0.717203    0.363142
   C    -1.863507    3.174653    0.513342
   C    -0.525106    3.245536    0.085806
   C    -0.017787    2.136920   -0.697265
   C     1.354286    2.133655   -1.138245
   C     2.162309    3.208853   -0.803218
   C     1.660319    4.310504   -0.047293
   C     0.351243    4.334533    0.390070
   H    -4.619489   -1.261097   -0.551957
   H    -4.472259    2.678075    1.238961
   H    -5.718807    0.590282    0.699143
   H    -2.293812    3.999188    1.093982
   H     3.210757    3.215567   -1.122081
   H     2.332828    5.140919    0.191916
   H    -0.028466    5.173866    0.982762
   N    -0.770160    1.071480   -1.014745
   Ru    0.811511   -1.366009    0.979028
   C    -2.019889   -1.352398   -1.494641
   H    -1.334356   -0.951860   -2.258724
   H    -2.724592   -2.065522   -1.957556
   C     1.842458    0.923729   -1.873330
   H     1.056604    0.554550   -2.552192
   H     2.758849    1.143627   -2.448880
   P    -0.949736   -2.340151   -0.293751
   P     2.238476   -0.524113   -0.718464
   C     3.871771    0.066513   -0.062322
   H     4.333745   -0.742077    0.528363
   H     4.560207    0.375051   -0.869695
   H     3.689752    0.918255    0.613933
   C     2.818404   -1.733341   -2.013346
   H     3.608376   -1.303994   -2.655402
   H     3.208206   -2.639201   -1.518331
   H     1.962006   -2.024845   -2.644501
   C    -2.264343   -3.116628    0.749639
   H    -3.057812   -3.582775    0.137625
   H    -1.791225   -3.874180    1.394979
   H    -2.696818   -2.338807    1.398938
   C    -0.494247   -3.767588   -1.397253
   H     0.081656   -4.505883   -0.813606
   H    -1.389777   -4.259140   -1.817460
   H     0.141679   -3.405483   -2.221474
   C     1.796512   -0.633032    2.382709
   O     2.327975   -0.139588    3.300358
   H    -0.029193   -0.061651    1.080038
   H    -0.101699   -1.987342    2.202121
