21
Structure: R16 Stoichiometry: C10H10Pd+
   C     2.110750    1.099630    0.529522
   C     2.116595   -0.165610    1.207219
   C     2.117258   -1.196938    0.213317
   C     2.119785   -0.574734   -1.072627
   C     2.114267    0.849427   -0.875332
   Pd    0.122975   -0.002849    0.000864
   H     2.124507   -2.271033    0.406477
   H     2.124479   -0.314380    2.288104
   H     2.113909    2.080318    1.008226
   H     2.132935   -1.087096   -2.035901
   H     2.123117    1.603638   -1.663858
   C    -1.270222    1.357224   -0.004235
   C    -1.275247   -1.358697   -0.004272
   C    -2.650451    1.241145   -0.000212
   C    -2.655052   -1.236559   -0.000193
   C    -3.324214    0.003559    0.003194
   H    -0.864596    2.383775   -0.011748
   H    -3.263286    2.153781   -0.001566
   H    -4.421506    0.005614    0.005553
   H    -3.271672   -2.146656   -0.001470
   H    -0.875577   -2.387597   -0.011839
