92
Structure: R17 Stoichiometry: C31H55PdP3BrN+
   N    -4.147597   -4.350554   -0.961927
   C    -3.902594   -3.429599   -1.912698
   C    -2.767556   -2.615051   -1.943072
   C    -1.794794   -2.711077   -0.917083
   C    -2.041430   -3.706974    0.058273
   C    -3.206219   -4.476432   -0.009085
   C    -0.585937   -1.878048   -0.939849
   Pd   -0.692364    0.064060    0.162685
   P     1.081757    1.656836    0.456559
   C     0.400777   -1.895732    0.081478
   C     1.841047   -1.733424   -0.165532
   C     2.774414   -2.159498    0.809137
   C     4.153380   -1.992366    0.635833
   C     4.625654   -1.392358   -0.538975
   C     3.732666   -1.003170   -1.552543
   C     2.361234   -1.181741   -1.362731
   Br    6.498188   -1.092032   -0.768925
   P    -2.074526    1.234579   -1.333747
   H    -0.271844   -1.588852   -1.950656
   H     0.174149   -2.464139    0.990707
   H    -2.630235   -1.901888   -2.763041
   H    -1.314604   -3.897438    0.853467
   H    -4.659630   -3.339614   -2.705115
   H    -3.390675   -5.248268    0.751920
   H     2.406704   -2.622195    1.731450
   H     1.672950   -0.869318   -2.153920
   H     4.855082   -2.313841    1.410494
   H     4.112674   -0.559563   -2.477066
   P    -1.918549   -0.098867    2.269659
   C     1.727934    2.255202   -1.205510
   C     3.155026    2.803019   -1.327937
   H     0.986810    2.995498   -1.562652
   H     1.613111    1.379922   -1.866144
   H     3.377983    3.046744   -2.383022
   H     3.307508    3.719058   -0.734934
   H     3.896470    2.054258   -1.001298
   C     2.621691    1.124332    1.378212
   C     3.511554    2.162349    2.072229
   H     3.212044    0.539745    0.653754
   H     2.263242    0.391979    2.121532
   H     4.342042    1.648753    2.590014
   H     3.957433    2.875303    1.360638
   H     2.956633    2.738952    2.832627
   C     0.573875    3.232503    1.342441
   C     1.276858    4.560121    1.032966
   H     0.643965    2.990597    2.419878
   H    -0.503475    3.334521    1.139206
   H     0.815779    5.378445    1.616056
   H     2.349763    4.537398    1.279593
   H     1.180089    4.825180   -0.034385
   C    -3.202533    1.171217    2.787164
   C    -2.736263    2.625630    2.728706
   H    -3.552385    0.909681    3.805226
   H    -4.065762    1.033427    2.111524
   H    -3.554291    3.314504    3.005384
   H    -1.892356    2.815825    3.413885
   H    -2.401642    2.881507    1.709879
   C    -0.801919   -0.016528    3.772531
   C     0.291425   -1.089033    3.764754
   H    -1.416828   -0.079225    4.691953
   H    -0.337873    0.987090    3.755060
   H     0.982772   -0.960950    4.616600
   H    -0.135780   -2.105347    3.829659
   H     0.874790   -1.027896    2.830396
   C    -2.909048   -1.634356    2.689266
   C    -4.167430   -1.794086    1.827957
   H    -3.166509   -1.614209    3.766915
   H    -2.236093   -2.494514    2.529843
   H    -4.632940   -2.781129    1.988951
   H    -4.923056   -1.025821    2.068331
   H    -3.922689   -1.713675    0.755603
   C    -3.869162    0.743335   -1.140502
   C    -5.002182    1.597834   -1.722493
   H    -3.988471    0.670241   -0.045805
   H    -3.924816   -0.299919   -1.500781
   H    -5.978188    1.145158   -1.469292
   H    -4.995723    2.617473   -1.299822
   H    -4.950721    1.683459   -2.819308
   C    -2.114218    3.110121   -1.243416
   C    -2.531418    3.933134   -2.469631
   H    -1.092969    3.402127   -0.944600
   H    -2.758125    3.347611   -0.376273
   H    -2.469545    5.012370   -2.238828
   H    -1.862389    3.743440   -3.326404
   H    -3.562985    3.718799   -2.790168
   C    -1.621575    0.903301   -3.126924
   C    -2.695978    0.934737   -4.221385
   H    -1.143484   -0.090420   -3.111971
   H    -0.805130    1.616188   -3.350014
   H    -2.249591    0.672719   -5.197996
   H    -3.494163    0.200266   -4.017546
   H    -3.165558    1.925840   -4.323670
