45
Structure: R21 Stoichiometry: C11H29N4Ta+
   Ta    0.025488    0.072926   -0.091869
   N     0.264319    2.078376   -0.135247
   N    -2.016989    0.263629   -0.328478
   N     2.079164   -0.299616   -0.179255
   N    -0.139742   -0.700283    1.763679
   C     0.000913   -1.000564   -2.086500
   H    -0.948873   -0.784011   -2.601678
   H     0.851468   -0.793179   -2.753688
   C     0.040813   -2.327363   -1.445080
   H     1.037381   -2.771978   -1.304147
   C    -1.013835   -2.981099   -0.888943
   H    -2.040642   -2.617088   -1.001361
   H    -0.875141   -3.918087   -0.339073
   H    -2.996714    0.343341   -2.223797
   C    -2.571529    1.016829   -1.446059
   H    -1.791079    1.634456   -1.922119
   H    -3.391562    1.688010   -1.111862
   H    -3.818481    0.212851    0.793831
   C    -3.062872   -0.478474    0.360304
   H    -3.610978   -1.158950   -0.328625
   H    -2.631646   -1.086583    1.169706
   H     3.810100   -0.133201   -1.403239
   C     3.029146   -0.872197   -1.114188
   H     2.536546   -1.213901   -2.035799
   H     3.565209   -1.739884   -0.668709
   H     3.292930   -0.709261    1.532372
   C     2.800528    0.144209    1.016891
   H     3.594721    0.877861    0.758457
   H     2.117520    0.626281    1.735596
   H     2.154144    2.040388   -1.079521
   C     1.443544    2.766915   -0.660761
   H     1.955218    3.350072    0.134838
   H     1.155585    3.481637   -1.460196
   H    -0.998257    3.778648   -0.363309
   C    -0.694847    3.038160    0.407002
   H    -1.597238    2.517811    0.761971
   H    -0.253552    3.605908    1.254087
   C    -0.698298    0.103706    2.841369
   H    -0.955745    1.112643    2.476312
   H     0.024064    0.215193    3.678517
   H    -1.624825   -0.348203    3.257720
   H    -0.625783   -2.682316    2.383308
   C     0.255731   -2.034043    2.184260
   H     0.862027   -1.990993    3.114080
   H     0.859948   -2.512284    1.398132
