51
Structure: R28 Stoichiometry: C17H28NIrP2O2+
   C    -3.048370    0.724819   -1.076065
   C    -2.219473    0.021488   -0.160913
   C    -2.901101   -0.770729    0.802742
   C    -4.301786   -0.843233    0.863027
   C    -5.088241   -0.135699   -0.058805
   C    -4.449151    0.645418   -1.034389
   Ir   -0.175950    0.133454   -0.235168
   P     0.195003   -2.051856   -0.784229
   C     1.947042   -2.243360   -0.181289
   C     2.696774   -0.940249   -0.270069
   N     1.954037    0.217781   -0.275877
   C     2.609569    1.425125   -0.267708
   C     4.006064    1.499573   -0.234932
   C     4.767807    0.324608   -0.250515
   C     4.096851   -0.903188   -0.278600
   C     1.758374    2.670374   -0.352959
   P     0.017322    2.342527    0.253680
   H     4.651493   -1.846283   -0.282817
   H     4.487873    2.481829   -0.218334
   H     5.861312    0.365745   -0.239620
   H     2.249156    3.525694    0.144914
   H     1.636510    2.938255   -1.421132
   H     1.805191   -2.507118    0.893258
   H     2.505838   -3.065289   -0.663395
   H    -2.579799    1.346220   -1.850485
   H    -5.047768    1.200829   -1.767520
   H    -6.181840   -0.194412   -0.019804
   H    -4.782114   -1.463605    1.630189
   H    -2.314554   -1.351652    1.527306
   H     0.023418   -0.209630    1.835234
   O     0.041690   -0.377483    2.853933
   H    -0.903663   -0.293422    3.081913
   H     0.565948   -2.001249    2.868106
   O     0.898901   -2.939456    2.756114
   H     1.646006   -2.989477    3.376876
   C     0.015128    2.887875    2.019214
   H     0.445044    3.897979    2.140355
   H    -1.030853    2.891592    2.371535
   H     0.570144    2.148640    2.618940
   C    -0.968721    3.666620   -0.571857
   H    -2.022095    3.548464   -0.267679
   H    -0.614416    4.677032   -0.301057
   H    -0.909605    3.529270   -1.663919
   C     0.248302   -2.443944   -2.589261
   H     0.641251   -3.459730   -2.774073
   H    -0.773177   -2.362948   -2.997645
   H     0.884094   -1.698511   -3.094294
   C    -0.682236   -3.490373   -0.046552
   H    -1.764898   -3.361746   -0.209810
   H    -0.344857   -4.438641   -0.500841
   H    -0.464357   -3.503550    1.034310
