43
Structure: R30/R31 Stoichiometry: C14H26PtPN+
   C    -0.371670    3.965513   -0.080246
   C     0.851265    3.296350   -0.201203
   C     0.925395    1.896895   -0.355788
   C    -0.277572    1.138646   -0.408500
   C    -1.512699    1.825285   -0.208760
   C    -1.556070    3.222209   -0.058509
   C     2.300038    1.254372   -0.373498
   C     2.512249    0.296882    0.812070
   N     3.668792   -0.580332    0.644359
   Pt   -0.394688   -0.907016   -0.580189
   C     0.948826   -0.995664   -2.197953
   C    -2.775537    1.000216   -0.031812
   P    -2.193452   -0.513832    0.878704
   H     1.786624    3.867899   -0.165266
   H    -2.520759    3.721548    0.090890
   H    -0.397878    5.054838    0.031002
   H    -3.184355    0.645145   -0.997077
   H    -3.569986    1.552910    0.501825
   H     2.446954    0.672460   -1.295276
   H     3.060515    2.054641   -0.364766
   H     2.556514    0.878793    1.767908
   C    -3.658920   -1.626458    1.016721
   C    -1.925307    0.088595    2.600569
   H     1.617267   -0.354039    0.874678
   C     4.942342    0.124235    0.662149
   C     3.646741   -1.684548    1.591049
   H     1.051966   -0.023366   -2.707329
   H     1.944918   -1.336996   -1.857245
   H     0.559862   -1.728398   -2.930865
   H    -0.803535   -2.614745   -1.007624
   H     5.762803   -0.589894    0.472558
   H     4.968115    0.887101   -0.133221
   H     5.149542    0.634888    1.636193
   H     4.482167   -2.375242    1.378960
   H     3.736506   -1.359002    2.657952
   H     2.699442   -2.241538    1.484813
   H    -2.852929    0.497059    3.038955
   H    -1.553950   -0.740144    3.226284
   H    -1.154347    0.875828    2.562751
   H    -4.508428   -1.112682    1.500414
   H    -3.956779   -1.952241    0.006183
   H    -3.391806   -2.518386    1.608624
   H    -0.217047   -2.694536   -0.415359
