15
Structure: R33 Stoichiometry: CH11N2Pt+
   C    -2.048474   -0.414344   -0.081640
   Pt   -0.012689   -0.191301   -0.000763
   N     2.256113   -0.059289   -0.060911
   N    -0.299445    2.054899    0.012490
   H     0.106910   -1.741889   -0.084422
   H     2.644832   -0.206304   -1.003339
   H    -0.135301   -0.630550    1.456068
   H    -2.381457   -1.411665    0.240615
   H    -2.303988   -0.272068   -1.151777
   H    -2.557705    0.352273    0.529503
   H     0.101490    2.575181   -0.780999
   H     0.086559    2.493876    0.859818
   H    -1.304358    2.280642    0.016764
   H     2.676602    0.811941    0.288439
   H     2.650321   -0.813153    0.517660
