62
Structure: R5 Stoichiometry: C18H38MnO2P2N+
   Mn   -0.000001   -0.049787   -0.115828
   P     2.242482    0.191186   -0.257069
   P    -2.242484    0.191184   -0.257068
   N    -0.000001    1.960508   -0.651655
   C     2.430797    1.958835   -0.802346
   H     3.379519    2.414177   -0.467901
   H     2.411921    1.960354   -1.907203
   C     1.195227    2.694770   -0.276940
   H     1.297858    2.843177    0.830716
   H     1.169226    3.720148   -0.711960
   C    -1.195230    2.694769   -0.276942
   H    -1.169230    3.720146   -0.711962
   H    -1.297861    2.843177    0.830714
   C    -2.430799    1.958832   -0.802347
   H    -2.411922    1.960350   -1.907205
   H    -3.379521    2.414174   -0.467904
   C    -3.193393    0.115106    1.359864
   C    -2.915888   -1.173502    2.152958
   H    -3.325226   -1.073955    3.174508
   H    -1.838269   -1.380045    2.235295
   H    -3.394819   -2.048771    1.683313
   C    -3.140188   -0.802818   -1.580902
   C    -3.276071   -2.285710   -1.196491
   H    -3.577942   -2.877850   -2.079498
   H    -4.053991   -2.424303   -0.425521
   H    -2.331887   -2.701771   -0.809070
   C     3.140180   -0.802818   -1.580904
   C     3.276063   -2.285709   -1.196490
   H     3.577926   -2.877852   -2.079498
   H     2.331882   -2.701767   -0.809060
   H     4.053989   -2.424301   -0.425527
   C     3.193394    0.115107    1.359861
   C     2.915893   -1.173502    2.152954
   H     3.325229   -1.073953    3.174506
   H     3.394832   -2.048769    1.683310
   H     1.838276   -1.380052    2.235288
   C     0.000003    0.412020    1.582080
   O     0.000008    0.765180    2.702339
   C     0.000006   -1.796209    0.230483
   C    -4.470307   -0.220246   -2.087560
   H    -5.271513   -0.316825   -1.337726
   H    -4.382747    0.844332   -2.361172
   H    -4.792912   -0.771650   -2.990218
   C     4.470298   -0.220248   -2.087568
   H     4.792901   -0.771655   -2.990225
   H     4.382736    0.844329   -2.361184
   H     5.271505   -0.316823   -1.337736
   C     4.699622    0.402253    1.265171
   H     5.110903    0.565999    2.278015
   H     5.242140   -0.451741    0.824602
   H     4.923104    1.299956    0.664144
   C    -4.699622    0.402248    1.265178
   H    -5.242139   -0.451747    0.824611
   H    -5.110900    0.565995    2.278023
   H    -4.923107    1.299951    0.664151
   H    -2.714293    0.951186    1.907326
   H     2.714294    0.951185    1.907325
   H    -2.407486   -0.734463   -2.409420
   H     2.407475   -0.734464   -2.409420
   O     0.000016   -2.938342    0.523238
   H    -0.000018   -0.613460   -1.840593
   H     0.000014    0.189364   -1.871464
